xflr5 v6.43

Plane name :        base
Polar name :        T1-30.0 m/s-VLM2-34.9kg-x0.0mm-TG
Freestream speed :  30.000 m/s


   alpha      Beta       CL          CDi        CDv        CD         CY         Cl         Cm         Cn        Cni       QInf        XCP
  -25.000     0.000  -1.925269   0.178204   0.000572   0.178777  -0.000000  -0.000000  -0.101930   0.000000   0.000000   30.0000    -0.0165
  -24.500     0.000  -1.883784   0.171318   0.000572   0.171890  -0.000000  -0.000000  -0.099876   0.000000   0.000000   30.0000    -0.0168
  -24.000     0.000  -1.842059   0.164505   0.000572   0.165078  -0.000000  -0.000000  -0.097898   0.000000   0.000000   30.0000    -0.0170
  -23.500     0.000  -1.800106   0.157772   0.000572   0.158344  -0.000000  -0.000000  -0.095997   0.000000   0.000000   30.0000    -0.0173
  -23.000     0.000  -1.757939   0.151122   0.000572   0.151695  -0.000000  -0.000000  -0.094176   0.000000   0.000000   30.0000    -0.0176
  -22.500     0.000  -1.715571   0.144561   0.003714   0.148276   0.000000   0.000000  -0.092235   0.000000   0.000000   30.0000    -0.0180
  -22.000     0.000  -1.673015   0.138094   0.003487   0.141581  -0.000000  -0.000000  -0.090592   0.000000   0.000000   30.0000    -0.0183
  -21.500     0.000  -1.630283   0.131725   0.006678   0.138403  -0.000000  -0.000000  -0.088742   0.000000   0.000000   30.0000    -0.0188
  -21.000     0.000  -1.587388   0.125458   0.006171   0.131630  -0.000000   0.000000  -0.087295   0.000000   0.000000   30.0000    -0.0192
  -20.500     0.000  -1.544344   0.119299   0.005846   0.125145  -0.000000  -0.000000  -0.085919   0.000000   0.000000   30.0000    -0.0197
  -20.000     0.000  -1.501163   0.113251   0.005572   0.118823  -0.000000  -0.000000  -0.084625   0.000000   0.000000   30.0000    -0.0203
  -19.500     0.000  -1.457858   0.107320   0.005454   0.112774  -0.000000   0.000000  -0.083463  -0.000000   0.000000   30.0000    -0.0209
  -19.000     0.000  -1.414442   0.101509   0.008144   0.109653  -0.000000  -0.000000  -0.081979  -0.000000   0.000000   30.0000    -0.0215
  -18.500     0.000  -1.370927   0.095823   0.007671   0.103494  -0.000000  -0.000000  -0.080976  -0.000000   0.000000   30.0000    -0.0223
  -18.000     0.000  -1.327326   0.090265   0.007298   0.097563  -0.000000   0.000000  -0.080056  -0.000000   0.000000   30.0000    -0.0231
  -17.500     0.000  -1.283653   0.084841   0.008240   0.093082  -0.000000   0.000000  -0.079663   0.000000   0.000000   30.0000    -0.0239
  -17.000     0.000  -1.239918   0.079555   0.007509   0.087064  -0.000000  -0.000000  -0.078754   0.000000   0.000000   30.0000    -0.0249
  -16.500     0.000  -1.196137   0.074409   0.011840   0.086249  -0.000000  -0.000000  -0.078324   0.000000   0.000000   30.0000    -0.0259
  -16.000     0.000  -1.152319   0.069408   0.011161   0.080570  -0.000000  -0.000000  -0.077749  -0.000000   0.000000   30.0000    -0.0271
  -15.500     0.000  -1.108479   0.064557   0.011422   0.075979  -0.000000  -0.000000  -0.077479  -0.000000   0.000000   30.0000    -0.0284
  -15.000     0.000  -1.064629   0.059858   0.011982   0.071840  -0.000000   0.000000  -0.077349  -0.000000   0.000000   30.0000    -0.0298
  -14.500     0.000  -1.020780   0.055315   0.015253   0.070568  -0.000000  -0.000000  -0.076680  -0.000000   0.000000   30.0000    -0.0313
  -14.000     0.000  -0.976946   0.050932   0.015311   0.066243  -0.000000  -0.000000  -0.076732   0.000000   0.000000   30.0000    -0.0330
  -13.500     0.000  -0.933139   0.046712   0.014269   0.060982  -0.000000  -0.000000  -0.076515   0.000000   0.000000   30.0000    -0.0349
  -13.000     0.000  -0.889371   0.042659   0.013598   0.056257  -0.000000   0.000000  -0.076466   0.000000   0.000000   30.0000    -0.0370
  -12.500     0.000  -0.845655   0.038775   0.017838   0.056613   0.000000   0.000000  -0.075537   0.000000   0.000000   30.0000    -0.0394
  -12.000     0.000  -0.802002   0.035064   0.016640   0.051705  -0.000000   0.000000  -0.075873   0.000000   0.000000   30.0000    -0.0421
  -11.500     0.000  -0.758427   0.031529   0.018348   0.049878  -0.000000  -0.000000  -0.075789   0.000000   0.000000   30.0000    -0.0451
  -11.000     0.000  -0.714941   0.028173   0.019836   0.048009  -0.000000   0.000000  -0.075834   0.000000   0.000000   30.0000    -0.0485
  -10.500     0.000  -0.671557   0.024998   0.020575   0.045572  -0.000000   0.000000  -0.076118   0.000000   0.000000   30.0000    -0.0524
  -10.000     0.000  -0.628290   0.022006   0.019381   0.041387  -0.000000  -0.000000  -0.076909   0.000000   0.000000   30.0000    -0.0568
   -9.500     0.000  -0.585153   0.019200   0.018385   0.037585  -0.000000  -0.000000  -0.077763   0.000000   0.000000   30.0000    -0.0620
   -9.000     0.000  -0.542160   0.016583   0.017538   0.034121  -0.000000  -0.000000  -0.078696   0.000000   0.000000   30.0000    -0.0680
   -8.500     0.000  -0.499326   0.014156   0.016805   0.030961  -0.000000  -0.000000  -0.079714   0.000000   0.000000   30.0000    -0.0751
   -8.000     0.000  -0.456669   0.011921   0.016166   0.028087  -0.000000  -0.000000  -0.080817   0.000000   0.000000   30.0000    -0.0835
   -7.500     0.000  -0.414204   0.009879   0.015592   0.025471  -0.000000  -0.000000  -0.082006   0.000000   0.000000   30.0000    -0.0937
   -7.000     0.000  -0.371951   0.008033   0.015084   0.023117  -0.000000  -0.000000  -0.083277   0.000000   0.000000   30.0000    -0.1063
   -6.500     0.000  -0.329927   0.006382   0.014637   0.021019  -0.000000  -0.000000  -0.084627   0.000000   0.000000   30.0000    -0.1220
   -6.000     0.000  -0.288152   0.004928   0.014229   0.019157  -0.000000  -0.000000  -0.086053   0.000000   0.000000   30.0000    -0.1423
   -5.500     0.000  -0.246645   0.003671   0.013845   0.017516  -0.000000   0.000000  -0.087547   0.000000   0.000000   30.0000    -0.1693
   -5.000     0.000  -0.205422   0.002612   0.013528   0.016140  -0.000000  -0.000000  -0.089097   0.000000   0.000000   30.0000    -0.2071
   -4.500     0.000  -0.164488   0.001749   0.013271   0.015020  -0.000000  -0.000000  -0.090701   0.000000   0.000000   30.0000    -0.2635
   -4.000     0.000  -0.123824   0.001084   0.013038   0.014121  -0.000000   0.000000  -0.092368   0.000000   0.000000   30.0000    -0.3565
   -3.500     0.000  -0.083341   0.000614   0.012845   0.013459  -0.000000   0.000000  -0.094136   0.000000   0.000000   30.0000    -0.5398
   -3.000     0.000  -0.042793   0.000338   0.012721   0.013059  -0.000000   0.000000  -0.096135   0.000000   0.000000   30.0000    -1.0734
   -2.500     0.000  -0.001619   0.000256   0.012651   0.012907  -0.000000   0.000000  -0.098713   0.000000   0.000000   30.0000   -29.1235
   -2.000     0.000   0.040963   0.000363   0.012588   0.012950  -0.000000   0.000000  -0.102451   0.000000   0.000000   30.0000     1.1932
   -1.500     0.000   0.084865   0.000601   0.012556   0.013157  -0.000000   0.000000  -0.107428   0.000000   0.000000   30.0000     0.6032
   -1.000     0.000   0.128026   0.001076   0.012452   0.013528  -0.000000   0.000000  -0.112071   0.000000   0.000000   30.0000     0.4166
   -0.500     0.000   0.168101   0.001761   0.012239   0.013999  -0.000000   0.000000  -0.114716   0.000000   0.000000   30.0000     0.3243
    0.000     0.000   0.206172   0.002637   0.012014   0.014651  -0.000000  -0.000000  -0.116240   0.000000   0.000000   30.0000     0.2676
    0.500     0.000   0.243762   0.003700   0.011927   0.015627   0.000000   0.000000  -0.117669   0.000000  -0.000000   30.0000     0.2288
    1.000     0.000   0.281375   0.004952   0.011906   0.016858   0.000000  -0.000000  -0.119302   0.000000  -0.000000   30.0000     0.2006
    1.500     0.000   0.319065   0.006397   0.011868   0.018265  -0.000000  -0.000000  -0.121156   0.000000  -0.000000   30.0000     0.1794
    2.000     0.000   0.356783   0.008038   0.012033   0.020071  -0.000000  -0.000000  -0.123185   0.000000  -0.000000   30.0000     0.1629
    2.500     0.000   0.394462   0.009876   0.012218   0.022093   0.000000  -0.000000  -0.125347   0.000000  -0.000000   30.0000     0.1496
    3.000     0.000   0.432049   0.011910   0.012438   0.024349   0.000000  -0.000000  -0.127609   0.000000  -0.000000   30.0000     0.1389
    3.500     0.000   0.469496   0.014143   0.012671   0.026814   0.000000   0.000000  -0.129944   0.000000  -0.000000   30.0000     0.1299
    4.000     0.000   0.506765   0.016572   0.012946   0.029518  -0.000000  -0.000000  -0.132336   0.000000   0.000000   30.0000     0.1224
    4.500     0.000   0.543825   0.019198   0.013250   0.032449  -0.000000   0.000000  -0.134771   0.000000   0.000000   30.0000     0.1159
    5.000     0.000   0.580650   0.022020   0.013625   0.035645   0.000000  -0.000000  -0.137240   0.000000  -0.000000   30.0000     0.1104
    5.500     0.000   0.617215   0.025036   0.014024   0.039060   0.000000  -0.000000  -0.139733   0.000000  -0.000000   30.0000     0.1055
    6.000     0.000   0.653501   0.028244   0.014518   0.042762  -0.000000   0.000000  -0.142245   0.000000   0.000000   30.0000     0.1013
    6.500     0.000   0.689489   0.031643   0.015057   0.046700  -0.000000  -0.000000  -0.144774   0.000000   0.000000   30.0000     0.0976
    7.000     0.000   0.725163   0.035231   0.015585   0.050816   0.000000  -0.000000  -0.147310   0.000000  -0.000000   30.0000     0.0943
    7.500     0.000   0.760507   0.039005   0.016146   0.055151   0.000000  -0.000000  -0.149852   0.000000  -0.000000   30.0000     0.0913
    8.000     0.000   0.795507   0.042963   0.016709   0.059671  -0.000000   0.000000  -0.152393   0.000000   0.000000   30.0000     0.0887
    8.500     0.000   0.830150   0.047102   0.017269   0.064372   0.000000  -0.000000  -0.154941   0.000000  -0.000000   30.0000     0.0863
    9.000     0.000   0.864423   0.051421   0.017886   0.069307   0.000000   0.000000  -0.157490   0.000000  -0.000000   30.0000     0.0841
    9.500     0.000   0.898313   0.055915   0.018582   0.074497   0.000000   0.000000  -0.160030   0.000000  -0.000000   30.0000     0.0822
   10.000     0.000   0.931808   0.060582   0.019559   0.080141  -0.000000  -0.000000  -0.162477   0.000000   0.000000   30.0000     0.0804
   10.500     0.000   0.964896   0.065419   0.019293   0.084712  -0.000000   0.000000  -0.165409  -0.000000   0.000000   30.0000     0.0788
   11.000     0.000   0.997567   0.070422   0.019461   0.089884   0.000000   0.000000  -0.168257  -0.000000  -0.000000   30.0000     0.0774
   11.500     0.000   1.029807   0.075589   0.019831   0.095420   0.000000  -0.000000  -0.171041  -0.000000  -0.000000   30.0000     0.0760
   12.000     0.000   1.061607   0.080916   0.019251   0.100167   0.000000  -0.000000  -0.174303  -0.000000  -0.000000   30.0000     0.0748
   12.500     0.000   1.092955   0.086399   0.020177   0.106576   0.000000   0.000000  -0.176993   0.000000  -0.000000   30.0000     0.0737
   13.000     0.000   1.123840   0.092035   0.019270   0.111304  -0.000000   0.000000  -0.180605   0.000000   0.000000   30.0000     0.0727
   13.500     0.000   1.154251   0.097819   0.020921   0.118740  -0.000000   0.000000  -0.183219   0.000000   0.000000   30.0000     0.0718
   14.000     0.000   1.184178   0.103748   0.014998   0.118746   0.000000  -0.000000  -0.185739  -0.000000  -0.000000   30.0000     0.0709
   14.500     0.000   1.213610   0.109819   0.013166   0.122985  -0.000000   0.000000  -0.187946  -0.000000   0.000000   30.0000     0.0702
   15.000     0.000   1.242536   0.116027   0.011001   0.127027  -0.000000   0.000000  -0.190249  -0.000000   0.000000   30.0000     0.0695
   15.500     0.000   1.270945   0.122367   0.011453   0.133821   0.000000  -0.000000  -0.192852  -0.000000  -0.000000   30.0000     0.0688
   16.000     0.000   1.298829   0.128837   0.011818   0.140654  -0.000000   0.000000  -0.195531   0.000000   0.000000   30.0000     0.0682
   16.500     0.000   1.326176   0.135431   0.012405   0.147836   0.000000  -0.000000  -0.198144  -0.000000  -0.000000   30.0000     0.0677
   17.000     0.000   1.352977   0.142145   0.013154   0.155299   0.000000  -0.000000  -0.200761  -0.000000  -0.000000   30.0000     0.0672
   17.500     0.000   1.379221   0.148975   0.014752   0.163727  -0.000000  -0.000000  -0.203471   0.000000   0.000000   30.0000     0.0668
   18.000     0.000   1.404899   0.155917   0.010693   0.166610  -0.000000   0.000000  -0.205456   0.000000   0.000000   30.0000     0.0664
   18.500     0.000   1.430002   0.162965   0.008516   0.171481   0.000000  -0.000000  -0.207200  -0.000000  -0.000000   30.0000     0.0661
   19.000     0.000   1.454519   0.170116   0.008813   0.178929   0.000000  -0.000000  -0.209610  -0.000000  -0.000000   30.0000     0.0658
   19.500     0.000   1.478442   0.177364   0.009227   0.186591  -0.000000  -0.000000  -0.212001   0.000000   0.000000   30.0000     0.0655
   20.000     0.000   1.501761   0.184706   0.006611   0.191317  -0.000000   0.000000  -0.214036   0.000000   0.000000   30.0000     0.0653
   20.500     0.000   1.524468   0.192135   0.006789   0.198923  -0.000000  -0.000000  -0.216324   0.000000   0.000000   30.0000     0.0651
   21.000     0.000   1.546554   0.199647   0.006977   0.206624   0.000000  -0.000000  -0.218575  -0.000000  -0.000000   30.0000     0.0650
   21.500     0.000   1.568009   0.207238   0.007168   0.214406  -0.000000  -0.000000  -0.220787  -0.000000  -0.000000   30.0000     0.0648
   22.000     0.000   1.588826   0.214903   0.007384   0.222287   0.000000   0.000000  -0.222960  -0.000000  -0.000000   30.0000     0.0647
   22.500     0.000   1.608996   0.222636   0.007644   0.230280   0.000000  -0.000000  -0.225093  -0.000000  -0.000000   30.0000     0.0647
   23.000     0.000   1.628511   0.230432   0.008001   0.238433  -0.000000  -0.000000  -0.227188  -0.000000  -0.000000   30.0000     0.0646
   23.500     0.000   1.647363   0.238287   0.009279   0.247566  -0.000000  -0.000000  -0.229309  -0.000000  -0.000000   30.0000     0.0646
   24.000     0.000   1.665544   0.246195   0.005264   0.251458  -0.000000   0.000000  -0.230947   0.000000   0.000000   30.0000     0.0646


