xflr5 v6.43

Plane name :        flaps 15
Polar name :        T1-30.0 m/s-VLM2-34.9kg-x0.0mm-TG
Freestream speed :  30.000 m/s


   alpha      Beta       CL          CDi        CDv        CD         CY         Cl         Cm         Cn        Cni       QInf        XCP
  -25.000     0.000  -1.609703   0.161380   0.028479   0.189859   0.000000  -0.000000  -0.214209  -0.000001   0.000000   30.0000    -0.0698
  -24.500     0.000  -1.571356   0.154361   0.028423   0.182783   0.000000  -0.000000  -0.213869  -0.000001   0.000000   30.0000    -0.0711
  -24.000     0.000  -1.532787   0.147449   0.042011   0.189461   0.000000  -0.000000  -0.211808  -0.000003   0.000000   30.0000    -0.0725
  -23.500     0.000  -1.494009   0.140651   0.041962   0.182613   0.000000  -0.000000  -0.211462  -0.000003   0.000000   30.0000    -0.0740
  -23.000     0.000  -1.455032   0.133972   0.041915   0.175887   0.000000  -0.000000  -0.211100  -0.000003   0.000000   30.0000    -0.0755
  -22.500     0.000  -1.415867   0.127417   0.041870   0.169287   0.000000  -0.000000  -0.210726  -0.000003   0.000000   30.0000    -0.0772
  -22.000     0.000  -1.376525   0.120991   0.045759   0.166749   0.000000  -0.000000  -0.209702  -0.000006   0.000000   30.0000    -0.0790
  -21.500     0.000  -1.337018   0.114699   0.022850   0.137549   0.000000  -0.000000  -0.210887  -0.000004   0.000000   30.0000    -0.0809
  -21.000     0.000  -1.297356   0.108546   0.027462   0.136008   0.000000  -0.000000  -0.210159  -0.000003   0.000000   30.0000    -0.0830
  -20.500     0.000  -1.257552   0.102537   0.027271   0.129809   0.000000  -0.000000  -0.209754  -0.000003   0.000000   30.0000    -0.0852
  -20.000     0.000  -1.217615   0.096677   0.010993   0.107670   0.000000  -0.000000  -0.210901  -0.000003   0.000000   30.0000    -0.0875
  -19.500     0.000  -1.177557   0.090970   0.023660   0.114631   0.000000  -0.000000  -0.209159  -0.000002   0.000000   30.0000    -0.0900
  -19.000     0.000  -1.137390   0.085421   0.023331   0.108751   0.000000  -0.000000  -0.208750  -0.000002   0.000000   30.0000    -0.0928
  -18.500     0.000  -1.097125   0.080033   0.015353   0.095386   0.000000  -0.000000  -0.208847  -0.000003   0.000000   30.0000    -0.0957
  -18.000     0.000  -1.056771   0.074811   0.012677   0.087488   0.000000  -0.000000  -0.209483  -0.000000   0.000000   30.0000    -0.0989
  -17.500     0.000  -1.016342   0.069758   0.030009   0.099768   0.000000  -0.000000  -0.206518   0.000003   0.000000   30.0000    -0.1024
  -17.000     0.000  -0.975847   0.064880   0.016217   0.081097   0.000000  -0.000000  -0.208797   0.000000   0.000000   30.0000    -0.1062
  -16.500     0.000  -0.935298   0.060179   0.015592   0.075771   0.000000  -0.000000  -0.208391   0.000000   0.000000   30.0000    -0.1103
  -16.000     0.000  -0.894706   0.055658   0.014372   0.070030   0.000000  -0.000000  -0.207933   0.000000   0.000000   30.0000    -0.1148
  -15.500     0.000  -0.854082   0.051322   0.015897   0.067219   0.000000  -0.000000  -0.208178   0.000000   0.000000   30.0000    -0.1198
  -15.000     0.000  -0.813436   0.047174   0.018743   0.065917   0.000000  -0.000000  -0.207441   0.000000   0.000000   30.0000    -0.1253
  -14.500     0.000  -0.772780   0.043216   0.018406   0.061622   0.000000  -0.000000  -0.207223   0.000000   0.000000   30.0000    -0.1315
  -14.000     0.000  -0.732125   0.039452   0.017748   0.057199   0.000000  -0.000000  -0.206888   0.000000   0.000000   30.0000    -0.1383
  -13.500     0.000  -0.691482   0.035884   0.016907   0.052791   0.000000  -0.000000  -0.206509   0.000000   0.000000   30.0000    -0.1459
  -13.000     0.000  -0.650861   0.032515   0.020744   0.053259   0.000000  -0.000000  -0.205203   0.000000   0.000000   30.0000    -0.1546
  -12.500     0.000  -0.610274   0.029348   0.019665   0.049012   0.000000  -0.000000  -0.205062   0.000000   0.000000   30.0000    -0.1644
  -12.000     0.000  -0.569731   0.026384   0.021134   0.047519   0.000000  -0.000000  -0.204442   0.000000   0.000000   30.0000    -0.1756
  -11.500     0.000  -0.529243   0.023627   0.022138   0.045765   0.000000  -0.000000  -0.203948   0.000000   0.000000   30.0000    -0.1886
  -11.000     0.000  -0.488822   0.021078   0.020984   0.042062   0.000000  -0.000000  -0.203972   0.000000   0.000000   30.0000    -0.2037
  -10.500     0.000  -0.448480   0.018740   0.020021   0.038761   0.000000  -0.000000  -0.204004   0.000000   0.000000   30.0000    -0.2216
  -10.000     0.000  -0.408226   0.016614   0.019173   0.035787   0.000000  -0.000000  -0.204058   0.000000   0.000000   30.0000    -0.2430
   -9.500     0.000  -0.368073   0.014703   0.018433   0.033136   0.000000  -0.000000  -0.204145   0.000000   0.000000   30.0000    -0.2691
   -9.000     0.000  -0.328033   0.013009   0.017766   0.030775   0.000000  -0.000000  -0.204270   0.000000   0.000000   30.0000    -0.3016
   -8.500     0.000  -0.288117   0.011536   0.017146   0.028682   0.000000  -0.000000  -0.204439   0.000000   0.000000   30.0000    -0.3431
   -8.000     0.000  -0.248337   0.010286   0.016609   0.026896   0.000000  -0.000000  -0.204651   0.000000   0.000000   30.0000    -0.3978
   -7.500     0.000  -0.208706   0.009267   0.016146   0.025413   0.000000  -0.000000  -0.204910   0.000000   0.000000   30.0000    -0.4732
   -7.000     0.000  -0.169234   0.008482   0.015734   0.024217   0.000000  -0.000000  -0.205215   0.000000   0.000000   30.0000    -0.5835
   -6.500     0.000  -0.129933   0.007941   0.015347   0.023289   0.000000  -0.000000  -0.205570   0.000000   0.000000   30.0000    -0.7601
   -6.000     0.000  -0.090816   0.007650   0.014983   0.022633   0.000000  -0.000000  -0.205968   0.000000   0.000000   30.0000    -1.0881
   -5.500     0.000  -0.051896   0.007609   0.014657   0.022266   0.000000  -0.000000  -0.206405   0.000000   0.000000   30.0000    -1.9053
   -5.000     0.000  -0.013192   0.007799   0.014357   0.022157   0.000000  -0.000000  -0.206879   0.000000   0.000000   30.0000    -7.5019
   -4.500     0.000   0.025270   0.008168   0.014120   0.022288   0.000000  -0.000000  -0.207385   0.000000   0.000000   30.0000     3.9206
   -4.000     0.000   0.063475   0.008620   0.013919   0.022538   0.000000  -0.000000  -0.207934   0.000000   0.000000   30.0000     1.5629
   -3.500     0.000   0.101481   0.009064   0.013758   0.022823   0.000000  -0.000000  -0.208577   0.000000   0.000000   30.0000     0.9793
   -3.000     0.000   0.139571   0.009535   0.013665   0.023200   0.000000  -0.000000  -0.209473   0.000000   0.000000   30.0000     0.7142
   -2.500     0.000   0.178407   0.010212   0.013542   0.023754   0.000000  -0.000000  -0.211007   0.000000   0.000000   30.0000     0.5622
   -2.000     0.000   0.218832   0.011267   0.013354   0.024621   0.000000  -0.000000  -0.213756   0.000000   0.000000   30.0000     0.4637
   -1.500     0.000   0.260678   0.012800   0.013100   0.025901   0.000000  -0.000000  -0.217714   0.000000   0.000000   30.0000     0.3960
   -1.000     0.000   0.301454   0.014311   0.013004   0.027315   0.000000  -0.000000  -0.221053   0.000000  -0.000000   30.0000     0.3473
   -0.500     0.000   0.338985   0.016213   0.012861   0.029074   0.000000  -0.000000  -0.222170   0.000000  -0.000000   30.0000     0.3101
    0.000     0.000   0.374564   0.018228   0.012763   0.030991   0.000000  -0.000000  -0.222197   0.000000  -0.000000   30.0000     0.2804
    0.500     0.000   0.409752   0.020351   0.012816   0.033167   0.000000  -0.000000  -0.222179   0.000000  -0.000000   30.0000     0.2560
    1.000     0.000   0.445010   0.022622   0.013224   0.035846   0.000000  -0.000000  -0.222369   0.000000  -0.000000   30.0000     0.2357
    1.500     0.000   0.480366   0.025070   0.013302   0.038372   0.000000  -0.000000  -0.222763   0.000000  -0.000000   30.0000     0.2186
    2.000     0.000   0.515756   0.027713   0.013429   0.041141   0.000000  -0.000000  -0.223299  -0.000000  -0.000000   30.0000     0.2039
    2.500     0.000   0.551109   0.030556   0.013817   0.044372   0.000000  -0.000000  -0.223927  -0.000000  -0.000000   30.0000     0.1912
    3.000     0.000   0.586366   0.033602   0.014009   0.047610   0.000000  -0.000000  -0.224614  -0.000000  -0.000000   30.0000     0.1802
    3.500     0.000   0.621479   0.036849   0.014274   0.051123   0.000000  -0.000000  -0.225334  -0.000000  -0.000000   30.0000     0.1704
    4.000     0.000   0.656410   0.040296   0.014606   0.054901   0.000000  -0.000000  -0.226072  -0.000000  -0.000000   30.0000     0.1618
    4.500     0.000   0.691127   0.043939   0.015076   0.059015   0.000000  -0.000000  -0.226813  -0.000000  -0.000000   30.0000     0.1541
    5.000     0.000   0.725604   0.047776   0.015804   0.063580   0.000000  -0.000000  -0.227553  -0.000000  -0.000000   30.0000     0.1472
    5.500     0.000   0.759818   0.051803   0.016240   0.068043   0.000000  -0.000000  -0.228285  -0.000000  -0.000000   30.0000     0.1409
    6.000     0.000   0.793752   0.056018   0.016680   0.072697   0.000000  -0.000000  -0.229000  -0.000000  -0.000000   30.0000     0.1353
    6.500     0.000   0.827386   0.060416   0.018276   0.078692   0.000000  -0.000000  -0.229739   0.000000   0.000000   30.0000     0.1301
    7.000     0.000   0.860707   0.064994   0.018790   0.083784   0.000000  -0.000000  -0.230428   0.000000   0.000000   30.0000     0.1255
    7.500     0.000   0.893701   0.069749   0.020403   0.090152   0.000000  -0.000000  -0.231125   0.000000   0.000000   30.0000     0.1212
    8.000     0.000   0.926354   0.074676   0.021011   0.095687   0.000000  -0.000000  -0.231784   0.000000   0.000000   30.0000     0.1172
    8.500     0.000   0.958654   0.079772   0.021672   0.101443   0.000000  -0.000000  -0.232436   0.000000   0.000000   30.0000     0.1136
    9.000     0.000   0.990590   0.085032   0.022407   0.107439   0.000000  -0.000000  -0.233069   0.000000   0.000000   30.0000     0.1102
    9.500     0.000   1.022150   0.090453   0.023256   0.113708   0.000000  -0.000000  -0.233671   0.000000   0.000000   30.0000     0.1071
   10.000     0.000   1.053323   0.096029   0.024401   0.120430   0.000000  -0.000000  -0.234149   0.000000   0.000000   30.0000     0.1042
   10.500     0.000   1.084099   0.101757   0.024445   0.126202   0.000000  -0.000000  -0.235137   0.000000   0.000000   30.0000     0.1015
   11.000     0.000   1.114465   0.107632   0.024638   0.132270   0.000000  -0.000000  -0.236050   0.000000   0.000000   30.0000     0.0990
   11.500     0.000   1.144413   0.113648   0.023469   0.137118   0.000000  -0.000000  -0.237625   0.000000   0.000000   30.0000     0.0967
   12.000     0.000   1.173931   0.119802   0.024814   0.144617   0.000000  -0.000000  -0.238229   0.000000   0.000000   30.0000     0.0945
   12.500     0.000   1.203009   0.126088   0.026008   0.152096   0.000000  -0.000000  -0.238986   0.000000   0.000000   30.0000     0.0925
   13.000     0.000   1.231637   0.132502   0.025625   0.158127  -0.000000  -0.000000  -0.240727   0.000000   0.000000   30.0000     0.0906
   13.500     0.000   1.259804   0.139037   0.021050   0.160087   0.000000  -0.000000  -0.240549   0.000000   0.000000   30.0000     0.0889
   14.000     0.000   1.287500   0.145688   0.018058   0.163746   0.000000  -0.000000  -0.241688   0.000000   0.000000   30.0000     0.0872
   14.500     0.000   1.314715   0.152451   0.015690   0.168141   0.000000  -0.000000  -0.241853   0.000000   0.000000   30.0000     0.0857
   15.000     0.000   1.341439   0.159320   0.016237   0.175557   0.000000  -0.000000  -0.242557   0.000000   0.000000   30.0000     0.0842
   15.500     0.000   1.367661   0.166289   0.016780   0.183069   0.000000   0.000000  -0.243342   0.000000   0.000000   30.0000     0.0829
   16.000     0.000   1.393372   0.173353   0.017735   0.191088   0.000000   0.000000  -0.244115   0.000000   0.000000   30.0000     0.0816
   16.500     0.000   1.418561   0.180506   0.014293   0.194800   0.000000   0.000000  -0.244389   0.000000   0.000000   30.0000     0.0804
   17.000     0.000   1.443220   0.187743   0.014694   0.202437   0.000000   0.000000  -0.245091   0.000000   0.000000   30.0000     0.0793
   17.500     0.000   1.467337   0.195058   0.015152   0.210210   0.000000   0.000000  -0.245808   0.000000   0.000000   30.0000     0.0783
   18.000     0.000   1.490904   0.202444   0.015781   0.218225   0.000000   0.000000  -0.246574   0.000000   0.000000   30.0000     0.0773
   18.500     0.000   1.513910   0.209897   0.013323   0.223220   0.000000   0.000000  -0.246438   0.000000   0.000000   30.0000     0.0764
   19.000     0.000   1.536347   0.217410   0.013598   0.231008   0.000000   0.000000  -0.247069   0.000000   0.000000   30.0000     0.0755
   19.500     0.000   1.558205   0.224978   0.013882   0.238861  -0.000000   0.000000  -0.247696   0.000000   0.000000   30.0000     0.0747
   20.000     0.000   1.579475   0.232595   0.014182   0.246778  -0.000000   0.000000  -0.248319   0.000000   0.000000   30.0000     0.0740
   20.500     0.000   1.600147   0.240255   0.014501   0.254756  -0.000000   0.000000  -0.248938   0.000000   0.000000   30.0000     0.0733
   21.000     0.000   1.620213   0.247952   0.014853   0.262805   0.000000   0.000000  -0.249554   0.000000   0.000000   30.0000     0.0727
   21.500     0.000   1.639664   0.255681   0.014591   0.270271   0.000000   0.000000  -0.250081   0.000001   0.000000   30.0000     0.0721
   22.000     0.000   1.658491   0.263435   0.015129   0.278564  -0.000000   0.000000  -0.250702   0.000001   0.000000   30.0000     0.0715
   22.500     0.000   1.676686   0.271208   0.010614   0.281822   0.000000   0.000000  -0.250620   0.000000   0.000000   30.0000     0.0710
   23.000     0.000   1.694240   0.278996   0.010835   0.289831   0.000000   0.000000  -0.251161   0.000000   0.000000   30.0000     0.0705
   23.500     0.000   1.711146   0.286792   0.011075   0.297867  -0.000000   0.000000  -0.251691   0.000000   0.000000   30.0000     0.0701
   24.000     0.000   1.727395   0.294590   0.011366   0.305956   0.000000   0.000000  -0.252211   0.000000   0.000000   30.0000     0.0697


