xflr5 v6.43

Plane name :        left aileron -12
Polar name :        T1-30.0 m/s-VLM2-34.9kg-x0.0mm-TG
Freestream speed :  30.000 m/s


   alpha      Beta       CL          CDi        CDv        CD         CY         Cl         Cm         Cn        Cni       QInf        XCP
  -25.000     0.000  -2.039667   0.209851   0.000574   0.210424  -0.004198  -0.037414  -0.039324   0.001478   0.001478   30.0000     0.0058
  -24.500     0.000  -1.999206   0.202599   0.000574   0.203172  -0.004008  -0.037516  -0.035449   0.001484   0.001484   30.0000     0.0062
  -24.000     0.000  -1.958496   0.195407   0.000574   0.195981  -0.003819  -0.037616  -0.031657   0.001488   0.001488   30.0000     0.0067
  -23.500     0.000  -1.917549   0.188281   0.000574   0.188855  -0.003631  -0.037713  -0.027948   0.001490   0.001490   30.0000     0.0072
  -23.000     0.000  -1.876378   0.181226   0.000574   0.181799  -0.003444  -0.037809  -0.024326   0.001488   0.001488   30.0000     0.0077
  -22.500     0.000  -1.834995   0.174246   0.000574   0.174820  -0.003258  -0.037903  -0.020792   0.001484   0.001484   30.0000     0.0082
  -22.000     0.000  -1.793413   0.167347   0.003900   0.171247  -0.003073  -0.037995  -0.017140   0.001475   0.001477   30.0000     0.0087
  -21.500     0.000  -1.751645   0.160534   0.003540   0.164074  -0.002889  -0.038086  -0.013815   0.001467   0.001467   30.0000     0.0092
  -21.000     0.000  -1.709703   0.153811   0.005020   0.158831  -0.002706  -0.038176  -0.010434   0.001560   0.001455   30.0000     0.0097
  -20.500     0.000  -1.667600   0.147184   0.006310   0.153494  -0.002524  -0.038264  -0.007171   0.001432   0.001439   30.0000     0.0102
  -20.000     0.000  -1.625348   0.140657   0.005951   0.146608  -0.002343  -0.038351  -0.004145   0.001415   0.001421   30.0000     0.0108
  -19.500     0.000  -1.582959   0.134235   0.005661   0.139897  -0.002163  -0.038437  -0.001215   0.001395   0.001400   30.0000     0.0113
  -19.000     0.000  -1.540447   0.127923   0.007338   0.135262  -0.001985  -0.038522   0.001794   0.001568   0.001376   30.0000     0.0119
  -18.500     0.000  -1.497823   0.121725   0.006710   0.128435  -0.001807  -0.038606   0.004480   0.001500   0.001349   30.0000     0.0124
  -18.000     0.000  -1.455100   0.115646   0.007913   0.123559  -0.001631  -0.038689   0.007265   0.001292   0.001319   30.0000     0.0130
  -17.500     0.000  -1.412291   0.109690   0.008820   0.118510  -0.001456  -0.038771   0.009280   0.001259   0.001286   30.0000     0.0136
  -17.000     0.000  -1.369407   0.103862   0.008050   0.111912  -0.001283  -0.038853   0.011820   0.001212   0.001250   30.0000     0.0142
  -16.500     0.000  -1.326461   0.098166   0.009754   0.107921  -0.001110  -0.038935   0.013457   0.001197   0.001212   30.0000     0.0149
  -16.000     0.000  -1.283465   0.092607   0.010620   0.103227  -0.000939  -0.039016   0.015875   0.001347   0.001170   30.0000     0.0155
  -15.500     0.000  -1.240431   0.087188   0.011563   0.098751  -0.000770  -0.039097   0.018380   0.000938   0.001126   30.0000     0.0162
  -15.000     0.000  -1.197372   0.081913   0.013051   0.094964  -0.000601  -0.039178   0.019716   0.000919   0.001079   30.0000     0.0169
  -14.500     0.000  -1.154300   0.076787   0.014309   0.091096  -0.000434  -0.039258   0.021570   0.000705   0.001029   30.0000     0.0176
  -14.000     0.000  -1.111226   0.071814   0.015863   0.087676  -0.000269  -0.039339   0.023364   0.000998   0.000977   30.0000     0.0184
  -13.500     0.000  -1.068163   0.066996   0.014930   0.081926  -0.000104  -0.039420   0.025036   0.000900   0.000921   30.0000     0.0192
  -13.000     0.000  -1.025123   0.062339   0.014153   0.076492   0.000058  -0.039502   0.026575   0.000842   0.000863   30.0000     0.0200
  -12.500     0.000  -0.982118   0.057845   0.014933   0.072779   0.000220  -0.039584   0.028195   0.001135   0.000803   30.0000     0.0208
  -12.000     0.000  -0.939160   0.053519   0.015170   0.068688   0.000379  -0.039666   0.029651   0.001478   0.000740   30.0000     0.0217
  -11.500     0.000  -0.896261   0.049362   0.014807   0.064170   0.000538  -0.039749   0.030787   0.001239   0.000674   30.0000     0.0227
  -11.000     0.000  -0.853434   0.045380   0.016313   0.061692   0.000694  -0.039833   0.032086   0.001238   0.000606   30.0000     0.0236
  -10.500     0.000  -0.810691   0.041574   0.017706   0.059280   0.000849  -0.039917   0.033276   0.001964   0.000536   30.0000     0.0247
  -10.000     0.000  -0.768046   0.037948   0.017872   0.055820   0.001003  -0.040003   0.034104   0.001222   0.000463   30.0000     0.0258
   -9.500     0.000  -0.725510   0.034504   0.020315   0.054819   0.001155  -0.040088   0.035089   0.000054   0.000388   30.0000     0.0270
   -9.000     0.000  -0.683099   0.031246   0.017451   0.048696   0.001305  -0.040175   0.035084   0.000580   0.000311   30.0000     0.0283
   -8.500     0.000  -0.640826   0.028174   0.017472   0.045646   0.001453  -0.040262   0.035408   0.000200   0.000232   30.0000     0.0297
   -8.000     0.000  -0.598706   0.025293   0.018321   0.043615   0.001600  -0.040350   0.035731  -0.000512   0.000151   30.0000     0.0313
   -7.500     0.000  -0.556756   0.022604   0.017511   0.040114   0.001745  -0.040439   0.035634  -0.000512   0.000068   30.0000     0.0330
   -7.000     0.000  -0.514991   0.020108   0.016833   0.036940   0.001888  -0.040527   0.035430  -0.000539  -0.000016   30.0000     0.0349
   -6.500     0.000  -0.473430   0.017806   0.016235   0.034041   0.002029  -0.040616   0.035114  -0.000578  -0.000102   30.0000     0.0370
   -6.000     0.000  -0.432092   0.015701   0.015703   0.031404   0.002168  -0.040703   0.034687  -0.000627  -0.000190   30.0000     0.0395
   -5.500     0.000  -0.390993   0.013793   0.015232   0.029025   0.002305  -0.040790   0.034152  -0.000687  -0.000279   30.0000     0.0424
   -5.000     0.000  -0.350151   0.012083   0.014818   0.026902   0.002441  -0.040876   0.033518  -0.000750  -0.000369   30.0000     0.0459
   -4.500     0.000  -0.309574   0.010572   0.014448   0.025020   0.002574  -0.040960   0.032787  -0.000812  -0.000460   30.0000     0.0502
   -4.000     0.000  -0.269251   0.009260   0.014133   0.023393   0.002704  -0.041042   0.031957  -0.000883  -0.000553   30.0000     0.0557
   -3.500     0.000  -0.229118   0.008148   0.013866   0.022014   0.002832  -0.041127   0.031005  -0.000955  -0.000646   30.0000     0.0629
   -3.000     0.000  -0.188979   0.007235   0.013614   0.020849   0.002955  -0.041222   0.029838  -0.001027  -0.000741   30.0000     0.0727
   -2.500     0.000  -0.148385   0.006513   0.013421   0.019934   0.003070  -0.041355   0.028203  -0.001108  -0.000837   30.0000     0.0868
   -2.000     0.000  -0.106647   0.005967   0.013289   0.019256   0.003175  -0.041564   0.025616  -0.001184  -0.000935   30.0000     0.1088
   -1.500     0.000  -0.063536   0.005567   0.013200   0.018768   0.003266  -0.041797   0.021770  -0.001257  -0.001034   30.0000     0.1533
   -1.000     0.000  -0.020223   0.005358   0.013067   0.018425   0.003361  -0.041786   0.017394  -0.001328  -0.001131   30.0000     0.3790
   -0.500     0.000   0.021180   0.005317   0.012793   0.018110   0.003462  -0.041494   0.013980  -0.001391  -0.001221   30.0000    -0.2865
    0.000     0.000   0.060339   0.005559   0.012608   0.018167   0.003548  -0.041341   0.011986  -0.001492  -0.001308   30.0000    -0.0855
    0.500     0.000   0.098097   0.006012   0.012429   0.018441   0.003645  -0.041429   0.010837  -0.001575  -0.001400   30.0000    -0.0476
    1.000     0.000   0.135523   0.006666   0.012280   0.018946   0.003752  -0.041589   0.009733  -0.001626  -0.001496   30.0000    -0.0311
    1.500     0.000   0.173031   0.007513   0.012430   0.019943   0.003860  -0.041736   0.008365  -0.001763  -0.001593   30.0000    -0.0212
    2.000     0.000   0.210641   0.008548   0.012565   0.021113   0.003968  -0.041861   0.006715  -0.001860  -0.001688   30.0000    -0.0142
    2.500     0.000   0.248284   0.009775   0.012713   0.022488   0.004077  -0.041970   0.004834  -0.001954  -0.001784   30.0000    -0.0090
    3.000     0.000   0.285889   0.011196   0.012887   0.024083   0.004164  -0.042068   0.002773  -0.002048  -0.001871   30.0000    -0.0050
    3.500     0.000   0.323399   0.012814   0.013093   0.025907   0.004277  -0.042159   0.000570  -0.002154  -0.001968   30.0000    -0.0017
    4.000     0.000   0.360769   0.014631   0.013319   0.027950   0.004403  -0.042246  -0.001751  -0.002259  -0.002069   30.0000     0.0010
    4.500     0.000   0.397962   0.016650   0.013559   0.030209   0.004392  -0.042333  -0.004168  -0.002295  -0.002114   30.0000     0.0033
    5.000     0.000   0.434948   0.018867   0.013901   0.032768   0.004525  -0.042418  -0.006669  -0.002386  -0.002219   30.0000     0.0052
    5.500     0.000   0.471701   0.021284   0.014292   0.035576   0.004628  -0.042502  -0.009243  -0.002467  -0.002312   30.0000     0.0069
    6.000     0.000   0.508198   0.023899   0.014665   0.038565   0.004734  -0.042587  -0.011886  -0.002534  -0.002400   30.0000     0.0083
    6.500     0.000   0.544421   0.026712   0.015086   0.041799   0.004858  -0.042673  -0.014588  -0.002606  -0.002494   30.0000     0.0096
    7.000     0.000   0.580352   0.029724   0.015571   0.045295   0.004920  -0.042759  -0.017347  -0.002647  -0.002556   30.0000     0.0108
    7.500     0.000   0.615974   0.032927   0.016016   0.048942   0.004890  -0.042849  -0.020152  -0.002673  -0.002604   30.0000     0.0119
    8.000     0.000   0.651275   0.036322   0.016456   0.052778   0.005025  -0.042938  -0.023006  -0.002744  -0.002697   30.0000     0.0128
    8.500     0.000   0.686240   0.039908   0.016940   0.056848   0.005135  -0.043029  -0.025905  -0.002806  -0.002780   30.0000     0.0137
    9.000     0.000   0.720857   0.043682   0.017458   0.061140   0.005249  -0.043122  -0.028852  -0.002864  -0.002861   30.0000     0.0145
    9.500     0.000   0.755112   0.047641   0.018041   0.065682   0.005391  -0.043217  -0.031835  -0.002932  -0.002951   30.0000     0.0153
   10.000     0.000   0.788992   0.051807   0.018789   0.070596   0.003987  -0.043279  -0.034794  -0.002383  -0.002437   30.0000     0.0160
   10.500     0.000   0.822494   0.056099   0.018920   0.075019   0.006019  -0.043447  -0.038067  -0.003234  -0.003251   30.0000     0.0167
   11.000     0.000   0.855591   0.060615   0.019569   0.080185   0.004997  -0.043453  -0.041203  -0.002785  -0.002906   30.0000     0.0174
   11.500     0.000   0.888288   0.065285   0.019500   0.084784   0.005501  -0.043577  -0.044717  -0.002966  -0.003110   30.0000     0.0180
   12.000     0.000   0.920562   0.070129   0.017995   0.088123   0.005439  -0.043672  -0.048929  -0.002946  -0.003143   30.0000     0.0186
   12.500     0.000   0.952410   0.075139   0.018654   0.093793   0.005733  -0.043780  -0.052304  -0.002989  -0.003256   30.0000     0.0192
   13.000     0.000   0.983812   0.080241   0.018787   0.099028   0.007253  -0.043982  -0.055995  -0.003712  -0.004030   30.0000     0.0198
   13.500     0.000   1.014774   0.085646   0.018612   0.104258   0.006215  -0.044016  -0.059949  -0.003008  -0.003477   30.0000     0.0204
   14.000     0.000   1.045275   0.091114   0.018597   0.109711   0.007406  -0.044227  -0.063077  -0.003814  -0.003887   30.0000     0.0209
   14.500     0.000   1.075209   0.096425   0.016265   0.112691  -0.005154  -0.043133  -0.067210  -0.000488  -0.000170   30.0000     0.0214
   15.000     0.000   1.104818   0.102595   0.015530   0.118124   0.004459  -0.044063  -0.070624  -0.003770  -0.002910   30.0000     0.0220
   15.500     0.000   1.133879   0.108550   0.014716   0.123266   0.006694  -0.044337  -0.074089  -0.004771  -0.003526   30.0000     0.0225
   16.000     0.000   1.162405   0.114621   0.015209   0.129829   0.004277  -0.044237  -0.077816  -0.004259  -0.002952   30.0000     0.0230
   16.500     0.000   1.190437   0.120834   0.013962   0.134796   0.004901  -0.044400  -0.081216  -0.003921  -0.003185   30.0000     0.0235
   17.000     0.000   1.217958   0.127187   0.012796   0.139983   0.006322  -0.044507  -0.084684  -0.003566  -0.003327   30.0000     0.0240
   17.500     0.000   1.244915   0.133661   0.013574   0.147235   0.004783  -0.044568  -0.088452  -0.003485  -0.003210   30.0000     0.0245
   18.000     0.000   1.271349   0.140261   0.010954   0.151215   0.005189  -0.044662  -0.091655  -0.003321  -0.003267   30.0000     0.0250
   18.500     0.000   1.297230   0.146980   0.011641   0.158621   0.005572  -0.044743  -0.095443  -0.003328  -0.003294   30.0000     0.0255
   19.000     0.000   1.322529   0.153812   0.008901   0.162714   0.004789  -0.044943  -0.098542  -0.003837  -0.003488   30.0000     0.0260
   19.500     0.000   1.347285   0.160752   0.009177   0.169928   0.005751  -0.045006  -0.102267  -0.003857  -0.003496   30.0000     0.0265
   20.000     0.000   1.371455   0.167785   0.009524   0.177310   0.006706  -0.045192  -0.106006  -0.004080  -0.003709   30.0000     0.0270
   20.500     0.000   1.395133   0.174554   0.008444   0.182999   0.013834  -0.046319  -0.109634  -0.006273  -0.005646   30.0000     0.0276
   21.000     0.000   1.417825   0.182209   0.007644   0.189854  -0.003617  -0.045945  -0.112862  -0.004603  -0.004421   30.0000     0.0280
   21.500     0.000   1.440341   0.189540   0.007738   0.197278   0.004131  -0.045002  -0.116643  -0.003098  -0.002959   30.0000     0.0286
   22.000     0.000   1.462065   0.197484   0.008000   0.205485   0.015060  -0.046236  -0.120417  -0.005065  -0.004921   30.0000     0.0291
   22.500     0.000   1.483199   0.204455   0.008198   0.212654   0.003125  -0.045004  -0.124032  -0.002907  -0.002755   30.0000     0.0296
   23.000     0.000   1.503695   0.212027   0.008474   0.220501   0.004021  -0.045118  -0.127729  -0.002999  -0.002842   30.0000     0.0301
   23.500     0.000   1.523564   0.219687   0.008805   0.228492   0.005997  -0.045127  -0.131434  -0.002940  -0.002775   30.0000     0.0306
   24.000     0.000   1.542719   0.227373   0.009616   0.236989   0.003082  -0.045293  -0.135121  -0.003051  -0.002910   30.0000     0.0312


