xflr5 v6.43

Plane name :        left aileron -5
Polar name :        T1-30.0 m/s-VLM2-34.9kg-x0.0mm-TG
Freestream speed :  30.000 m/s


   alpha      Beta       CL          CDi        CDv        CD         CY         Cl         Cm         Cn        Cni       QInf        XCP
  -25.000     0.000  -1.981197   0.189969   0.000573   0.190542  -0.003547  -0.016942  -0.072556   0.000622   0.000622   30.0000    -0.0057
  -24.500     0.000  -1.940045   0.182933   0.000573   0.183507  -0.003409  -0.016971  -0.069703   0.000624   0.000624   30.0000    -0.0057
  -24.000     0.000  -1.898648   0.175967   0.000573   0.176540  -0.003273  -0.016999  -0.066930   0.000625   0.000625   30.0000    -0.0056
  -23.500     0.000  -1.857018   0.169074   0.000573   0.169647  -0.003137  -0.017026  -0.064241   0.000625   0.000625   30.0000    -0.0055
  -23.000     0.000  -1.815169   0.162259   0.000573   0.162833  -0.003003  -0.017052  -0.061637   0.000623   0.000623   30.0000    -0.0054
  -22.500     0.000  -1.773113   0.155529   0.000573   0.156102  -0.002870  -0.017077  -0.059120   0.000621   0.000621   30.0000    -0.0054
  -22.000     0.000  -1.730862   0.148887   0.003621   0.152508  -0.002738  -0.017101  -0.056500   0.000617   0.000618   30.0000    -0.0053
  -21.500     0.000  -1.688431   0.142338   0.003425   0.145763  -0.002608  -0.017125  -0.054176   0.000613   0.000613   30.0000    -0.0053
  -21.000     0.000  -1.645831   0.135887   0.006460   0.142348  -0.002480  -0.017148  -0.051673   0.000601   0.000607   30.0000    -0.0053
  -20.500     0.000  -1.603075   0.129539   0.006058   0.135597  -0.002353  -0.017170  -0.049557   0.000597   0.000600   30.0000    -0.0053
  -20.000     0.000  -1.560176   0.123298   0.005750   0.129048  -0.002227  -0.017191  -0.047527   0.000589   0.000591   30.0000    -0.0054
  -19.500     0.000  -1.517147   0.117168   0.005617   0.122785  -0.002103  -0.017212  -0.045642   0.000579   0.000582   30.0000    -0.0054
  -19.000     0.000  -1.474001   0.111155   0.006904   0.118058  -0.001981  -0.017233  -0.043603   0.000735   0.000571   30.0000    -0.0055
  -18.500     0.000  -1.430750   0.105262   0.008020   0.113282  -0.001860  -0.017253  -0.041696   0.000543   0.000559   30.0000    -0.0056
  -18.000     0.000  -1.387407   0.099494   0.007573   0.107066  -0.001741  -0.017272  -0.040084   0.000535   0.000546   30.0000    -0.0057
  -17.500     0.000  -1.343984   0.093855   0.008502   0.102356  -0.001624  -0.017291  -0.039015   0.000521   0.000531   30.0000    -0.0059
  -17.000     0.000  -1.300494   0.088349   0.007722   0.096070  -0.001509  -0.017310  -0.037419   0.000508   0.000516   30.0000    -0.0061
  -16.500     0.000  -1.256950   0.082980   0.009430   0.092410  -0.001395  -0.017329  -0.036731   0.000492   0.000499   30.0000    -0.0063
  -16.000     0.000  -1.213364   0.077753   0.010263   0.088017  -0.001284  -0.017347  -0.035267   0.000657   0.000481   30.0000    -0.0066
  -15.500     0.000  -1.169748   0.072671   0.011855   0.084526  -0.001174  -0.017366  -0.034154   0.000429   0.000461   30.0000    -0.0069
  -15.000     0.000  -1.126116   0.067739   0.013949   0.081687  -0.001067  -0.017384  -0.033145   0.000101   0.000441   30.0000    -0.0073
  -14.500     0.000  -1.082478   0.062959   0.015653   0.078612  -0.000961  -0.017402  -0.032116   0.000476   0.000419   30.0000    -0.0077
  -14.000     0.000  -1.038848   0.058336   0.015607   0.073943  -0.000858  -0.017420  -0.031564   0.000404   0.000397   30.0000    -0.0082
  -13.500     0.000  -0.995237   0.053872   0.014525   0.068397  -0.000757  -0.017438  -0.030733   0.000370   0.000373   30.0000    -0.0087
  -13.000     0.000  -0.951659   0.049573   0.013835   0.063408  -0.000657  -0.017456  -0.030092   0.000342   0.000348   30.0000    -0.0094
  -12.500     0.000  -0.908125   0.045440   0.014572   0.060012  -0.000560  -0.017474  -0.029355   0.000654   0.000322   30.0000    -0.0101
  -12.000     0.000  -0.864647   0.041478   0.016045   0.057522  -0.000466  -0.017493  -0.028562   0.000721   0.000295   30.0000    -0.0110
  -11.500     0.000  -0.821240   0.037688   0.017486   0.055174  -0.000373  -0.017512  -0.027908   0.000644   0.000267   30.0000    -0.0119
  -11.000     0.000  -0.777914   0.034075   0.016554   0.050629  -0.000283  -0.017530  -0.027865   0.000537   0.000238   30.0000    -0.0131
  -10.500     0.000  -0.734683   0.030641   0.019025   0.049667  -0.000195  -0.017550  -0.027331   0.000954   0.000208   30.0000    -0.0143
  -10.000     0.000  -0.691560   0.027389   0.021528   0.048917  -0.000109  -0.017569  -0.026951  -0.000448   0.000177   30.0000    -0.0159
   -9.500     0.000  -0.648559   0.024321   0.019100   0.043421  -0.000026  -0.017589  -0.027555  -0.000027   0.000145   30.0000    -0.0176
   -9.000     0.000  -0.605695   0.021440   0.018157   0.039596   0.000055  -0.017609  -0.028036  -0.000031   0.000112   30.0000    -0.0197
   -8.500     0.000  -0.562981   0.018747   0.017355   0.036102   0.000133  -0.017629  -0.028608  -0.000051   0.000078   30.0000    -0.0221
   -8.000     0.000  -0.520433   0.016245   0.016660   0.032906   0.000209  -0.017649  -0.029280  -0.000075   0.000044   30.0000    -0.0249
   -7.500     0.000  -0.478069   0.013936   0.016069   0.030004   0.000282  -0.017670  -0.030050  -0.000106   0.000009   30.0000    -0.0283
   -7.000     0.000  -0.435906   0.011820   0.015545   0.027365   0.000353  -0.017690  -0.030920  -0.000139  -0.000027   30.0000    -0.0325
   -6.500     0.000  -0.393961   0.009900   0.015074   0.024974   0.000421  -0.017711  -0.031888  -0.000172  -0.000064   30.0000    -0.0375
   -6.000     0.000  -0.352255   0.008176   0.014654   0.022830   0.000487  -0.017731  -0.032949  -0.000209  -0.000101   30.0000    -0.0439
   -5.500     0.000  -0.310805   0.006649   0.014272   0.020921   0.000550  -0.017750  -0.034097  -0.000246  -0.000139   30.0000    -0.0519
   -5.000     0.000  -0.269627   0.005320   0.013916   0.019235   0.000610  -0.017769  -0.035325  -0.000277  -0.000177   30.0000    -0.0624
   -4.500     0.000  -0.228730   0.004189   0.013620   0.017808   0.000668  -0.017787  -0.036627  -0.000306  -0.000216   30.0000    -0.0767
   -4.000     0.000  -0.188096   0.003256   0.013371   0.016626   0.000723  -0.017804  -0.038006  -0.000342  -0.000255   30.0000    -0.0972
   -3.500     0.000  -0.147651   0.002520   0.013154   0.015674   0.000774  -0.017823  -0.039495  -0.000380  -0.000294   30.0000    -0.1290
   -3.000     0.000  -0.107176   0.001980   0.012981   0.014961   0.000821  -0.017848  -0.041202  -0.000416  -0.000334   30.0000    -0.1857
   -2.500     0.000  -0.066171   0.001628   0.012887   0.014515   0.000864  -0.017894  -0.043424  -0.000461  -0.000375   30.0000    -0.3172
   -2.000     0.000  -0.023873   0.001457   0.012831   0.014288   0.000900  -0.017976  -0.046712  -0.000497  -0.000417   30.0000    -0.9448
   -1.500     0.000   0.019874   0.001441   0.012767   0.014208   0.000926  -0.018039  -0.051339  -0.000529  -0.000458   30.0000     1.2446
   -1.000     0.000   0.063369   0.001578   0.012671   0.014249   0.000961  -0.017956  -0.056114  -0.000562  -0.000499   30.0000     0.4255
   -0.500     0.000   0.104186   0.002002   0.012423   0.014424   0.000977  -0.017823  -0.059181  -0.000589  -0.000535   30.0000     0.2723
    0.000     0.000   0.142576   0.002618   0.012172   0.014791   0.001001  -0.017812  -0.060764  -0.000620  -0.000573   30.0000     0.2038
    0.500     0.000   0.180233   0.003427   0.012014   0.015441   0.001031  -0.017855  -0.062063  -0.000651  -0.000613   30.0000     0.1643
    1.000     0.000   0.217880   0.004424   0.011989   0.016413   0.001061  -0.017899  -0.063558  -0.000678  -0.000654   30.0000     0.1388
    1.500     0.000   0.255627   0.005610   0.011975   0.017585   0.001089  -0.017936  -0.065311  -0.000706  -0.000694   30.0000     0.1212
    2.000     0.000   0.293427   0.006990   0.012010   0.018999   0.001114  -0.017964  -0.067282  -0.000735  -0.000734   30.0000     0.1084
    2.500     0.000   0.331213   0.008564   0.012169   0.020733   0.001138  -0.017988  -0.069419  -0.000779  -0.000775   30.0000     0.0987
    3.000     0.000   0.368924   0.010337   0.012358   0.022695   0.001150  -0.018009  -0.071686  -0.000813  -0.000811   30.0000     0.0912
    3.500     0.000   0.406511   0.012307   0.012605   0.024911   0.001172  -0.018027  -0.074052  -0.000857  -0.000852   30.0000     0.0852
    4.000     0.000   0.443934   0.014475   0.012882   0.027357   0.001197  -0.018045  -0.076499  -0.000903  -0.000894   30.0000     0.0803
    4.500     0.000   0.481160   0.016842   0.013184   0.030026   0.001162  -0.018062  -0.079010  -0.000917  -0.000912   30.0000     0.0762
    5.000     0.000   0.518160   0.019406   0.013507   0.032913   0.001187  -0.018079  -0.081576  -0.000947  -0.000956   30.0000     0.0728
    5.500     0.000   0.554910   0.022166   0.013895   0.036061   0.001198  -0.018096  -0.084188  -0.000981  -0.000995   30.0000     0.0699
    6.000     0.000   0.591390   0.025121   0.014304   0.039425   0.001208  -0.018113  -0.086837  -0.000999  -0.001032   30.0000     0.0674
    6.500     0.000   0.627581   0.028268   0.014789   0.043057   0.001225  -0.018130  -0.089521  -0.001027  -0.001072   30.0000     0.0653
    7.000     0.000   0.663466   0.031608   0.015272   0.046880   0.001213  -0.018148  -0.092233  -0.001036  -0.001097   30.0000     0.0634
    7.500     0.000   0.699029   0.035136   0.015786   0.050922   0.001162  -0.018167  -0.094968  -0.001046  -0.001117   30.0000     0.0617
    8.000     0.000   0.734257   0.038851   0.016287   0.055138   0.001179  -0.018185  -0.097721  -0.001075  -0.001156   30.0000     0.0603
    8.500     0.000   0.769135   0.042751   0.016829   0.059580   0.001183  -0.018205  -0.100499  -0.001103  -0.001191   30.0000     0.0590
    9.000     0.000   0.803650   0.046833   0.017388   0.064221   0.001188  -0.018225  -0.103295  -0.001122  -0.001225   30.0000     0.0579
    9.500     0.000   0.837791   0.051094   0.018035   0.069130   0.001203  -0.018246  -0.106100  -0.001148  -0.001262   30.0000     0.0569
   10.000     0.000   0.871544   0.055536   0.018937   0.074473   0.000573  -0.018253  -0.108837  -0.000917  -0.001048   30.0000     0.0560
   10.500     0.000   0.904900   0.060142   0.018738   0.078881   0.001369  -0.018305  -0.112029  -0.001244  -0.001385   30.0000     0.0552
   11.000     0.000   0.937844   0.064927   0.019935   0.084862   0.000905  -0.018289  -0.114718  -0.001071  -0.001245   30.0000     0.0545
   11.500     0.000   0.970368   0.069876   0.019373   0.089249   0.001062  -0.018322  -0.118164  -0.001174  -0.001329   30.0000     0.0539
   12.000     0.000   1.002458   0.074988   0.018251   0.093240   0.000988  -0.018343  -0.121926  -0.001099  -0.001343   30.0000     0.0533
   12.500     0.000   1.034104   0.080262   0.018988   0.099250   0.001057  -0.018369  -0.124968  -0.001087  -0.001390   30.0000     0.0528
   13.000     0.000   1.065295   0.085679   0.017920   0.103599   0.001636  -0.018434  -0.128909  -0.001349  -0.001709   30.0000     0.0524
   13.500     0.000   1.096021   0.091274   0.019231   0.110505   0.001146  -0.018430  -0.131892  -0.001036  -0.001479   30.0000     0.0520
   14.000     0.000   1.126271   0.097003   0.016973   0.113976   0.001570  -0.018498  -0.134819  -0.002285  -0.001644   30.0000     0.0517
   14.500     0.000   1.156020   0.102829   0.017026   0.119855  -0.003497  -0.018037  -0.138432  -0.000574  -0.000159   30.0000     0.0514
   15.000     0.000   1.185295   0.108908   0.015136   0.124044   0.000285  -0.018397  -0.141180  -0.002697  -0.001255   30.0000     0.0512
   15.500     0.000   1.214053   0.115067   0.013168   0.128236   0.001120  -0.018490  -0.143890  -0.002144  -0.001502   30.0000     0.0510
   16.000     0.000   1.242288   0.121357   0.012517   0.133874   0.000104  -0.018433  -0.146953  -0.001697  -0.001274   30.0000     0.0508
   16.500     0.000   1.269997   0.127776   0.011660   0.139435   0.000295  -0.018481  -0.149771  -0.001211  -0.001368   30.0000     0.0507
   17.000     0.000   1.297170   0.134321   0.012235   0.146557   0.000798  -0.018508  -0.152890  -0.001240  -0.001424   30.0000     0.0506
   17.500     0.000   1.323789   0.140986   0.013053   0.154039   0.000135  -0.018514  -0.156036  -0.001144  -0.001379   30.0000     0.0505
   18.000     0.000   1.349853   0.147767   0.012045   0.159812   0.000236  -0.018535  -0.158953  -0.001629  -0.001402   30.0000     0.0504
   18.500     0.000   1.375349   0.154660   0.009121   0.163781   0.000327  -0.018552  -0.161400  -0.001824  -0.001413   30.0000     0.0504
   19.000     0.000   1.400264   0.161660   0.009456   0.171116  -0.000038  -0.018612  -0.164427  -0.001936  -0.001489   30.0000     0.0504
   19.500     0.000   1.424596   0.168761   0.009876   0.178637   0.000276  -0.018622  -0.167461  -0.001990  -0.001493   30.0000     0.0505
   20.000     0.000   1.448332   0.175958   0.009475   0.185433   0.000585  -0.018679  -0.170131  -0.001467  -0.001576   30.0000     0.0505
   20.500     0.000   1.471476   0.183193   0.007873   0.191066   0.003274  -0.019103  -0.172877  -0.002508  -0.002325   30.0000     0.0506
   21.000     0.000   1.493950   0.190637   0.008178   0.198815  -0.003514  -0.018926  -0.175772  -0.002052  -0.001849   30.0000     0.0507
   21.500     0.000   1.515864   0.198101   0.006978   0.205079  -0.000593  -0.018557  -0.178508  -0.001278  -0.001285   30.0000     0.0508
   22.000     0.000   1.537120   0.205719   0.007176   0.212895   0.003535  -0.019023  -0.181370  -0.002031  -0.002040   30.0000     0.0510
   22.500     0.000   1.557743   0.213257   0.007388   0.220646  -0.001099  -0.018527  -0.184178  -0.001196  -0.001207   30.0000     0.0512
   23.000     0.000   1.577716   0.220940   0.007639   0.228580  -0.000818  -0.018556  -0.186970  -0.001226  -0.001240   30.0000     0.0513
   23.500     0.000   1.597034   0.228689   0.008293   0.236982  -0.000128  -0.018546  -0.189762  -0.001158  -0.001214   30.0000     0.0515
   24.000     0.000   1.615680   0.236490   0.008966   0.245457  -0.001297  -0.018591  -0.192512  -0.001179  -0.001265   30.0000     0.0518


