xflr5 v6.43

Plane name :        left aileron 10
Polar name :        T1-30.0 m/s-VLM2-34.9kg-x0.0mm-TG
Freestream speed :  30.000 m/s


   alpha      Beta       CL          CDi        CDv        CD         CY         Cl         Cm         Cn        Cni       QInf        XCP
  -25.000     0.000  -1.794469   0.163081   0.000575   0.163656   0.002576   0.035599  -0.165764  -0.001564  -0.001564   30.0000    -0.0424
  -24.500     0.000  -1.752911   0.156400   0.000575   0.156975   0.002572   0.035544  -0.165207  -0.001558  -0.001558   30.0000    -0.0434
  -24.000     0.000  -1.711130   0.149803   0.000575   0.150377   0.002566   0.035488  -0.164702  -0.001550  -0.001550   30.0000    -0.0445
  -23.500     0.000  -1.669138   0.143294   0.002211   0.145505   0.002559   0.035430  -0.164143  -0.001573  -0.001538   30.0000    -0.0456
  -23.000     0.000  -1.626947   0.136880   0.003573   0.140453   0.002550   0.035371  -0.163657  -0.001523  -0.001524   30.0000    -0.0468
  -22.500     0.000  -1.584570   0.130564   0.004987   0.135551   0.002539   0.035311  -0.163186  -0.001609  -0.001507   30.0000    -0.0480
  -22.000     0.000  -1.542019   0.124351   0.006329   0.130681   0.002526   0.035249  -0.162780  -0.001477  -0.001488   30.0000    -0.0494
  -21.500     0.000  -1.499309   0.118247   0.005967   0.124213   0.002511   0.035187  -0.162579  -0.001458  -0.001465   30.0000    -0.0508
  -21.000     0.000  -1.456451   0.112255   0.007550   0.119805   0.002494   0.035124  -0.162187  -0.001637  -0.001441   30.0000    -0.0524
  -20.500     0.000  -1.413458   0.106380   0.006871   0.113251   0.002476   0.035060  -0.162149  -0.001564  -0.001413   30.0000    -0.0541
  -20.000     0.000  -1.370342   0.100627   0.006532   0.107160   0.002455   0.034996  -0.162125  -0.001521  -0.001384   30.0000    -0.0559
  -19.500     0.000  -1.327117   0.095000   0.007833   0.102833   0.002432   0.034931  -0.162019  -0.001320  -0.001351   30.0000    -0.0578
  -19.000     0.000  -1.283795   0.089504   0.008708   0.098211   0.002408   0.034866  -0.161906  -0.001488  -0.001317   30.0000    -0.0599
  -18.500     0.000  -1.240388   0.084142   0.008242   0.092384   0.002381   0.034801  -0.162082  -0.001436  -0.001280   30.0000    -0.0621
  -18.000     0.000  -1.196909   0.078919   0.009573   0.088492   0.002352   0.034736  -0.162929  -0.001377  -0.001240   30.0000    -0.0646
  -17.500     0.000  -1.153370   0.073839   0.008683   0.082522   0.002322   0.034670  -0.162995  -0.001322  -0.001199   30.0000    -0.0672
  -17.000     0.000  -1.109784   0.068905   0.008040   0.076945   0.002289   0.034605  -0.163202  -0.001284  -0.001155   30.0000    -0.0701
  -16.500     0.000  -1.066163   0.064122   0.010766   0.074889   0.002254   0.034541  -0.163997  -0.001049  -0.001109   30.0000    -0.0732
  -16.000     0.000  -1.022520   0.059494   0.010329   0.069823   0.002217   0.034476  -0.164412  -0.001010  -0.001061   30.0000    -0.0766
  -15.500     0.000  -0.978867   0.055024   0.011710   0.066734   0.002178   0.034413  -0.165415  -0.001011  -0.001011   30.0000    -0.0804
  -15.000     0.000  -0.935215   0.050715   0.012556   0.063271   0.002137   0.034349  -0.166272  -0.000913  -0.000960   30.0000    -0.0845
  -14.500     0.000  -0.891577   0.046572   0.012927   0.059499   0.002094   0.034287  -0.166421  -0.000592  -0.000906   30.0000    -0.0890
  -14.000     0.000  -0.847966   0.042597   0.014885   0.057482   0.002049   0.034225  -0.167077  -0.000881  -0.000851   30.0000    -0.0940
  -13.500     0.000  -0.804392   0.038793   0.013944   0.052737   0.002002   0.034165  -0.167728  -0.000819  -0.000794   30.0000    -0.0996
  -13.000     0.000  -0.760870   0.035165   0.020609   0.055773   0.001953   0.034105  -0.166814  -0.003099  -0.000736   30.0000    -0.1059
  -12.500     0.000  -0.717410   0.031714   0.018685   0.050399   0.001902   0.034046  -0.168198  -0.001124  -0.000676   30.0000    -0.1130
  -12.000     0.000  -0.674025   0.028443   0.025059   0.053502   0.001848   0.033988  -0.167734  -0.003991  -0.000614   30.0000    -0.1209
  -11.500     0.000  -0.630728   0.025356   0.019965   0.045320   0.001793   0.033932  -0.169744  -0.001382  -0.000552   30.0000    -0.1300
  -11.000     0.000  -0.587532   0.022454   0.021206   0.043660   0.001735   0.033877  -0.170514  -0.000369  -0.000488   30.0000    -0.1405
  -10.500     0.000  -0.544449   0.019740   0.020021   0.039761   0.001675   0.033823  -0.171851  -0.000394  -0.000423   30.0000    -0.1526
  -10.000     0.000  -0.501493   0.017216   0.019060   0.036277   0.001614   0.033770  -0.173216  -0.000383  -0.000357   30.0000    -0.1669
   -9.500     0.000  -0.458678   0.014884   0.018234   0.033118   0.001550   0.033718  -0.174625  -0.000354  -0.000291   30.0000    -0.1837
   -9.000     0.000  -0.416019   0.012746   0.017544   0.030290   0.001484   0.033668  -0.176084  -0.000318  -0.000223   30.0000    -0.2041
   -8.500     0.000  -0.373533   0.010804   0.016931   0.027735   0.001416   0.033618  -0.177598  -0.000275  -0.000155   30.0000    -0.2290
   -8.000     0.000  -0.331235   0.009058   0.016369   0.025426   0.001345   0.033569  -0.179166  -0.000227  -0.000086   30.0000    -0.2603
   -7.500     0.000  -0.289144   0.007509   0.015871   0.023380   0.001273   0.033521  -0.180785  -0.000174  -0.000016   30.0000    -0.3006
   -7.000     0.000  -0.247279   0.006158   0.015399   0.021556   0.001199   0.033473  -0.182453  -0.000111   0.000054   30.0000    -0.3543
   -6.500     0.000  -0.205662   0.005005   0.014967   0.019972   0.001123   0.033425  -0.184163  -0.000043   0.000124   30.0000    -0.4295
   -6.000     0.000  -0.164312   0.004048   0.014598   0.018646   0.001045   0.033375  -0.185904   0.000014   0.000195   30.0000    -0.5421
   -5.500     0.000  -0.123250   0.003288   0.014279   0.017567   0.000965   0.033324  -0.187670   0.000076   0.000265   30.0000    -0.7287
   -5.000     0.000  -0.082493   0.002722   0.013989   0.016710   0.000884   0.033270  -0.189453   0.000145   0.000336   30.0000    -1.0978
   -4.500     0.000  -0.042039   0.002349   0.013773   0.016122   0.000802   0.033213  -0.191247   0.000209   0.000407   30.0000    -2.1722
   -4.000     0.000  -0.001845   0.002175   0.013589   0.015764   0.000718   0.033156  -0.193079   0.000275   0.000477   30.0000   -49.9089
   -3.500     0.000   0.038245   0.002209   0.013432   0.015641   0.000631   0.033111  -0.195031   0.000351   0.000548   30.0000     2.4294
   -3.000     0.000   0.078598   0.002464   0.013327   0.015792   0.000540   0.033106  -0.197325   0.000422   0.000620   30.0000     1.1947
   -2.500     0.000   0.119804   0.002943   0.013232   0.016174   0.000451   0.033169  -0.200363   0.000492   0.000690   30.0000     0.7949
   -2.000     0.000   0.162381   0.003572   0.013113   0.016685   0.000366   0.033239  -0.204549   0.000586   0.000761   30.0000     0.5980
   -1.500     0.000   0.205498   0.004361   0.012948   0.017309   0.000281   0.033087  -0.209263   0.000690   0.000830   30.0000     0.4829
   -1.000     0.000   0.247164   0.005382   0.012737   0.018119   0.000207   0.032802  -0.213056   0.000764   0.000891   30.0000     0.4083
   -0.500     0.000   0.286129   0.006581   0.012504   0.019086   0.000117   0.032671  -0.215202   0.000830   0.000953   30.0000     0.3559
    0.000     0.000   0.323530   0.007965   0.012372   0.020337   0.000009   0.032650  -0.216556   0.000887   0.001017   30.0000     0.3164
    0.500     0.000   0.360568   0.009542   0.012243   0.021786  -0.000108   0.032644  -0.217870   0.000944   0.001082   30.0000     0.2854
    1.000     0.000   0.397618   0.011317   0.012329   0.023646  -0.000228   0.032626  -0.219339   0.000962   0.001146   30.0000     0.2603
    1.500     0.000   0.434711   0.013289   0.012709   0.025998  -0.000349   0.032595  -0.220963   0.000929   0.001208   30.0000     0.2397
    2.000     0.000   0.471797   0.015458   0.013012   0.028470  -0.000471   0.032554  -0.222706   0.000961   0.001269   30.0000     0.2224
    2.500     0.000   0.508816   0.017824   0.013220   0.031044  -0.000596   0.032507  -0.224529   0.001023   0.001329   30.0000     0.2078
    3.000     0.000   0.545717   0.020388   0.013650   0.034038  -0.000707   0.032456  -0.226407   0.001007   0.001380   30.0000     0.1952
    3.500     0.000   0.582458   0.023149   0.014403   0.037552  -0.000841   0.032402  -0.228324   0.000912   0.001440   30.0000     0.1844
    4.000     0.000   0.619005   0.026106   0.015077   0.041183  -0.000988   0.032345  -0.230262   0.000836   0.001500   30.0000     0.1748
    4.500     0.000   0.655328   0.029259   0.015563   0.044823  -0.001035   0.032289  -0.232201   0.000803   0.001519   30.0000     0.1665
    5.000     0.000   0.691403   0.032605   0.016070   0.048675  -0.001194   0.032231  -0.234138   0.000834   0.001581   30.0000     0.1590
    5.500     0.000   0.727207   0.036143   0.016581   0.052724  -0.001332   0.032173  -0.236067   0.000863   0.001634   30.0000     0.1524
    6.000     0.000   0.762723   0.039871   0.017452   0.057323  -0.001476   0.032114  -0.238002   0.000774   0.001682   30.0000     0.1465
    6.500     0.000   0.797932   0.043786   0.018153   0.061939  -0.001636   0.032056  -0.239912   0.000770   0.001735   30.0000     0.1411
    7.000     0.000   0.832820   0.047888   0.018921   0.066809  -0.001754   0.031997  -0.241802   0.000731   0.001763   30.0000     0.1362
    7.500     0.000   0.867369   0.052171   0.019622   0.071794  -0.001809   0.031939  -0.243670   0.000689   0.001780   30.0000     0.1318
    8.000     0.000   0.901569   0.056635   0.020411   0.077046  -0.001985   0.031882  -0.245516   0.000658   0.001830   30.0000     0.1278
    8.500     0.000   0.935405   0.061275   0.021265   0.082540  -0.002145   0.031824  -0.247349   0.000608   0.001871   30.0000     0.1241
    9.000     0.000   0.968864   0.066089   0.022197   0.088286  -0.002311   0.031767  -0.249159   0.000546   0.001910   30.0000     0.1207
    9.500     0.000   1.001935   0.071073   0.023297   0.094370  -0.002496   0.031711  -0.250941   0.000464   0.001954   30.0000     0.1176
   10.000     0.000   1.034604   0.076235   0.024715   0.100951  -0.001602   0.031628  -0.252588  -0.000050   0.001575   30.0000     0.1148
   10.500     0.000   1.066864   0.081539   0.024258   0.105798  -0.003050   0.031619  -0.254634   0.000590   0.002102   30.0000     0.1121
   11.000     0.000   1.098696   0.087022   0.022269   0.109291  -0.002576   0.031508  -0.256379   0.001081   0.001894   30.0000     0.1097
   11.500     0.000   1.130097   0.092653   0.019052   0.111705  -0.002974   0.031466  -0.258134   0.002318   0.002001   30.0000     0.1074
   12.000     0.000   1.161049   0.098439   0.019122   0.117561  -0.003057   0.031406  -0.260158   0.002358   0.002009   30.0000     0.1053
   12.500     0.000   1.191546   0.104373   0.020017   0.124391  -0.003339   0.031354  -0.261868   0.002443   0.002061   30.0000     0.1033
   13.000     0.000   1.221573   0.110423   0.016833   0.127255  -0.004524   0.031363  -0.264184   0.003576   0.002561   30.0000     0.1015
   13.500     0.000   1.251125   0.116673   0.016608   0.133282  -0.003829   0.031256  -0.265554   0.002787   0.002153   30.0000     0.0998
   14.000     0.000   1.280188   0.123024   0.014599   0.137624  -0.004582   0.031257  -0.267667   0.002614   0.002358   30.0000     0.0983
   14.500     0.000   1.308715   0.129427   0.012621   0.142048   0.001811   0.030550  -0.268871  -0.000222   0.000407   30.0000     0.0968
   15.000     0.000   1.336793   0.136147   0.013150   0.149297  -0.003315   0.030941  -0.270467   0.001155   0.001826   30.0000     0.0954
   15.500     0.000   1.364328   0.142896   0.011673   0.154569  -0.004611   0.030974  -0.271609   0.002344   0.002137   30.0000     0.0942
   16.000     0.000   1.391321   0.149754   0.012190   0.161944  -0.003510   0.030806  -0.273097   0.002055   0.001828   30.0000     0.0930
   16.500     0.000   1.417782   0.156732   0.012834   0.169565  -0.003966   0.030776  -0.274573   0.002182   0.001934   30.0000     0.0919
   17.000     0.000   1.443695   0.163823   0.013706   0.177529  -0.004806   0.030720  -0.276046   0.002268   0.001992   30.0000     0.0909
   17.500     0.000   1.469038   0.171015   0.009473   0.180489  -0.004206   0.030632  -0.276819   0.002426   0.001922   30.0000     0.0899
   18.000     0.000   1.493818   0.178312   0.009911   0.188223  -0.004552   0.030566  -0.278149   0.002505   0.001937   30.0000     0.0890
   18.500     0.000   1.518019   0.185705   0.009072   0.194777  -0.004884   0.030492  -0.279041   0.001884   0.001937   30.0000     0.0882
   19.000     0.000   1.541625   0.193187   0.007802   0.200988  -0.004673   0.030469  -0.280074   0.002208   0.002014   30.0000     0.0874
   19.500     0.000   1.564642   0.200758   0.008473   0.209231  -0.005271   0.030387  -0.281257   0.002274   0.002004   30.0000     0.0867
   20.000     0.000   1.587051   0.208408   0.006830   0.215238  -0.005857   0.030359  -0.282147   0.002077   0.002085   30.0000     0.0860
   20.500     0.000   1.608871   0.216060   0.007029   0.223089  -0.009192   0.030762  -0.283187   0.002932   0.002940   30.0000     0.0854
   21.000     0.000   1.629956   0.223934   0.007217   0.231151  -0.001608   0.030425  -0.284121   0.002355   0.002364   30.0000     0.0848
   21.500     0.000   1.650535   0.231816   0.007449   0.239265  -0.005190   0.029926  -0.285080   0.001691   0.001703   30.0000     0.0843
   22.000     0.000   1.670435   0.239855   0.007761   0.247615  -0.010071   0.030368  -0.285982   0.002525   0.002543   30.0000     0.0839
   22.500     0.000   1.689669   0.247731   0.008531   0.256262  -0.005098   0.029696  -0.286825   0.001516   0.001586   30.0000     0.0834
   23.000     0.000   1.708258   0.255770   0.007095   0.262865  -0.005650   0.029631  -0.287464   0.001816   0.001608   30.0000     0.0830
   23.500     0.000   1.726186   0.263860   0.007751   0.271611  -0.006643   0.029524  -0.288209   0.001830   0.001565   30.0000     0.0827
   24.000     0.000   1.743423   0.271977   0.005411   0.277388  -0.005606   0.029468  -0.288637   0.001603   0.001605   30.0000     0.0824


