xflr5 v6.43

Plane name :        rudder 10
Polar name :        T1-30.0 m/s-VLM2-34.9kg-x0.0mm-TG
Freestream speed :  30.000 m/s


   alpha      Beta       CL          CDi        CDv        CD         CY         Cl         Cm         Cn        Cni       QInf        XCP
  -25.000     0.000  -1.924746   0.180010   0.000906   0.180916   0.026640   0.011802  -0.101212  -0.004963  -0.004961   30.0000    -0.0165
  -24.500     0.000  -1.883282   0.173138   0.000906   0.174044   0.027029   0.011848  -0.099155  -0.005230  -0.005229   30.0000    -0.0167
  -24.000     0.000  -1.841579   0.166340   0.000906   0.167246   0.027411   0.011885  -0.097174  -0.005499  -0.005498   30.0000    -0.0169
  -23.500     0.000  -1.799648   0.159619   0.000907   0.160526   0.027785   0.011911  -0.095270  -0.005769  -0.005768   30.0000    -0.0172
  -23.000     0.000  -1.757503   0.152981   0.000907   0.153888   0.028151   0.011927  -0.093446  -0.006039  -0.006038   30.0000    -0.0175
  -22.500     0.000  -1.715157   0.146431   0.004053   0.150484   0.028508   0.011934  -0.091502  -0.006310  -0.006308   30.0000    -0.0179
  -22.000     0.000  -1.672623   0.139974   0.003823   0.143797   0.028856   0.011930  -0.089857  -0.006580  -0.006579   30.0000    -0.0182
  -21.500     0.000  -1.629913   0.133613   0.007022   0.140635   0.029195   0.011916  -0.088004  -0.006851  -0.006848   30.0000    -0.0186
  -21.000     0.000  -1.587040   0.127354   0.006510   0.133864   0.029524   0.011892  -0.086555  -0.007118  -0.007116   30.0000    -0.0191
  -20.500     0.000  -1.544017   0.121202   0.006185   0.127387   0.029845   0.011858  -0.085176  -0.007385  -0.007384   30.0000    -0.0196
  -20.000     0.000  -1.500858   0.115160   0.005910   0.121071   0.030155   0.011814  -0.083880  -0.007650  -0.007649   30.0000    -0.0202
  -19.500     0.000  -1.457574   0.109234   0.005793   0.115027   0.030456   0.011760  -0.082717  -0.007914  -0.007912   30.0000    -0.0208
  -19.000     0.000  -1.414179   0.103428   0.008485   0.111913   0.030747   0.011696  -0.081230  -0.008175  -0.008173   30.0000    -0.0214
  -18.500     0.000  -1.370685   0.097745   0.008011   0.105756   0.031027   0.011622  -0.080225  -0.008433  -0.008430   30.0000    -0.0221
  -18.000     0.000  -1.327106   0.092191   0.007638   0.099829   0.031298   0.011539  -0.079304  -0.008687  -0.008685   30.0000    -0.0229
  -17.500     0.000  -1.283453   0.086769   0.008581   0.095350   0.031558   0.011446  -0.078910  -0.008938  -0.008936   30.0000    -0.0238
  -17.000     0.000  -1.239739   0.081484   0.007850   0.089333   0.031807   0.011344  -0.077999  -0.009185  -0.009183   30.0000    -0.0247
  -16.500     0.000  -1.195978   0.076339   0.010835   0.087173   0.032045   0.011232  -0.077764  -0.009226  -0.009425   30.0000    -0.0258
  -16.000     0.000  -1.152181   0.071338   0.011504   0.082842   0.032273   0.011112  -0.076993  -0.009667  -0.009663   30.0000    -0.0269
  -15.500     0.000  -1.108361   0.066486   0.011765   0.078251   0.032490   0.010982  -0.076723  -0.009899  -0.009897   30.0000    -0.0282
  -15.000     0.000  -1.064530   0.061786   0.012324   0.074110   0.032695   0.010843  -0.076593  -0.010127  -0.010124   30.0000    -0.0296
  -14.500     0.000  -1.020701   0.057241   0.015600   0.072841   0.032890   0.010697  -0.075922  -0.010353  -0.010346   30.0000    -0.0311
  -14.000     0.000  -0.976886   0.052855   0.015656   0.068511   0.033073   0.010541  -0.075974  -0.010567  -0.010563   30.0000    -0.0328
  -13.500     0.000  -0.933098   0.048632   0.014613   0.063245   0.033245   0.010378  -0.075759  -0.010777  -0.010773   30.0000    -0.0347
  -13.000     0.000  -0.889349   0.044575   0.013941   0.058516   0.033406   0.010207  -0.075709  -0.010980  -0.010977   30.0000    -0.0368
  -12.500     0.000  -0.845651   0.040687   0.018188   0.058875   0.033555   0.010028  -0.074780  -0.011190  -0.011173   30.0000    -0.0392
  -12.000     0.000  -0.802017   0.036971   0.016986   0.053956   0.033693   0.009841  -0.075117  -0.011370  -0.011363   30.0000    -0.0418
  -11.500     0.000  -0.758460   0.033430   0.018695   0.052125   0.033819   0.009648  -0.075034  -0.011557  -0.011546   30.0000    -0.0448
  -11.000     0.000  -0.714992   0.030067   0.020187   0.050254   0.033934   0.009448  -0.075080  -0.011740  -0.011721   30.0000    -0.0482
  -10.500     0.000  -0.671626   0.026885   0.020921   0.047806   0.034038   0.009241  -0.075365  -0.011900  -0.011888   30.0000    -0.0521
  -10.000     0.000  -0.628377   0.023886   0.019726   0.043613   0.034130   0.009028  -0.076159  -0.012057  -0.012048   30.0000    -0.0565
   -9.500     0.000  -0.585257   0.021073   0.018730   0.039803   0.034210   0.008810  -0.077015  -0.012207  -0.012199   30.0000    -0.0616
   -9.000     0.000  -0.542281   0.018447   0.017883   0.036330   0.034279   0.008585  -0.077950  -0.012349  -0.012342   30.0000    -0.0676
   -8.500     0.000  -0.499465   0.016011   0.017149   0.033160   0.034336   0.008356  -0.078969  -0.012483  -0.012476   30.0000    -0.0747
   -8.000     0.000  -0.456824   0.013766   0.016510   0.030276   0.034382   0.008121  -0.080075  -0.012608  -0.012602   30.0000    -0.0830
   -7.500     0.000  -0.414376   0.011714   0.015935   0.027650   0.034417   0.007882  -0.081266  -0.012724  -0.012719   30.0000    -0.0932
   -7.000     0.000  -0.372139   0.009857   0.015428   0.025285   0.034440   0.007638  -0.082539  -0.012832  -0.012827   30.0000    -0.1057
   -6.500     0.000  -0.330132   0.008195   0.014980   0.023175   0.034452   0.007391  -0.083893  -0.012930  -0.012925   30.0000    -0.1213
   -6.000     0.000  -0.288373   0.006729   0.014572   0.021301   0.034453   0.007140  -0.085321  -0.013020  -0.013015   30.0000    -0.1415
   -5.500     0.000  -0.246882   0.005460   0.014188   0.019648   0.034442   0.006885  -0.086818  -0.013100  -0.013096   30.0000    -0.1683
   -5.000     0.000  -0.205675   0.004388   0.013872   0.018260   0.034420   0.006628  -0.088372  -0.013170  -0.013167   30.0000    -0.2059
   -4.500     0.000  -0.164758   0.003513   0.013614   0.017127   0.034387   0.006368  -0.089979  -0.013232  -0.013228   30.0000    -0.2618
   -4.000     0.000  -0.124110   0.002833   0.013381   0.016214   0.034343   0.006106  -0.091650  -0.013284  -0.013280   30.0000    -0.3541
   -3.500     0.000  -0.083643   0.002349   0.013188   0.015538   0.034288   0.005842  -0.093421  -0.013326  -0.013323   30.0000    -0.5354
   -3.000     0.000  -0.043111   0.002059   0.013063   0.015122   0.034223   0.005577  -0.095424  -0.013359  -0.013357   30.0000    -1.0607
   -2.500     0.000  -0.001953   0.001962   0.012993   0.014955   0.034147   0.005310  -0.098006  -0.013383  -0.013380   30.0000   -24.0327
   -2.000     0.000   0.040613   0.002054   0.012930   0.014984   0.034062   0.005042  -0.101747  -0.013397  -0.013395   30.0000     1.1984
   -1.500     0.000   0.084499   0.002279   0.012898   0.015177   0.033966   0.004774  -0.106728  -0.013402  -0.013400   30.0000     0.6034
   -1.000     0.000   0.127647   0.002740   0.012795   0.015535   0.033861   0.004507  -0.111376  -0.013400  -0.013396   30.0000     0.4162
   -0.500     0.000   0.167710   0.003413   0.012581   0.015994   0.033749   0.004242  -0.114026  -0.013388  -0.013384   30.0000     0.3238
    0.000     0.000   0.205773   0.004285   0.012358   0.016643   0.033628   0.003976  -0.115556  -0.013366  -0.013363   30.0000     0.2671
    0.500     0.000   0.243361   0.005357   0.012270   0.017627   0.033500   0.003712  -0.116991  -0.013336  -0.013333   30.0000     0.2283
    1.000     0.000   0.280982   0.006646   0.012249   0.018896   0.033365   0.003448  -0.118630  -0.013297  -0.013295   30.0000     0.2002
    1.500     0.000   0.318702   0.008173   0.012211   0.020385   0.033224   0.003187  -0.120490  -0.013249  -0.013248   30.0000     0.1790
    2.000     0.000   0.356468   0.009942   0.012376   0.022318   0.033076   0.002927  -0.122524  -0.013193  -0.013193   30.0000     0.1624
    2.500     0.000   0.394194   0.011902   0.012560   0.024462   0.032922   0.002669  -0.124692  -0.013128  -0.013129   30.0000     0.1492
    3.000     0.000   0.431794   0.013980   0.012781   0.026761   0.032761   0.002414  -0.126960  -0.013056  -0.013056   30.0000     0.1385
    3.500     0.000   0.469217   0.016164   0.013014   0.029178   0.032594   0.002161  -0.129301  -0.012975  -0.012975   30.0000     0.1295
    4.000     0.000   0.506447   0.018511   0.013288   0.031799   0.032421   0.001912  -0.131700  -0.012884  -0.012884   30.0000     0.1220
    4.500     0.000   0.543483   0.021089   0.013593   0.034682   0.032240   0.001666  -0.134140  -0.012783  -0.012785   30.0000     0.1156
    5.000     0.000   0.580306   0.023914   0.013967   0.037881   0.032052   0.001423  -0.136616  -0.012675  -0.012676   30.0000     0.1101
    5.500     0.000   0.616879   0.026956   0.014366   0.041322   0.031858   0.001185  -0.139116  -0.012557  -0.012560   30.0000     0.1053
    6.000     0.000   0.653174   0.030194   0.014859   0.045053   0.031658   0.000951  -0.141635  -0.012430  -0.012434   30.0000     0.1011
    6.500     0.000   0.689185   0.033652   0.015399   0.049051   0.031450   0.000721  -0.144171  -0.012296  -0.012299   30.0000     0.0973
    7.000     0.000   0.724905   0.037357   0.015927   0.053284   0.031234   0.000496  -0.146715  -0.012153  -0.012156   30.0000     0.0940
    7.500     0.000   0.760324   0.041314   0.016488   0.057802   0.031015   0.000277  -0.149265  -0.012003  -0.012005   30.0000     0.0911
    8.000     0.000   0.795423   0.045507   0.017050   0.062557   0.030779   0.000063  -0.151814  -0.011843  -0.011845   30.0000     0.0884
    8.500     0.000   0.830173   0.049903   0.017612   0.067515   0.030543  -0.000146  -0.154370  -0.011675  -0.011678   30.0000     0.0860
    9.000     0.000   0.864545   0.054459   0.018228   0.072687   0.030298  -0.000349  -0.156927  -0.011501  -0.011504   30.0000     0.0839
    9.500     0.000   0.898512   0.059138   0.018924   0.078062   0.030046  -0.000545  -0.159475  -0.011319  -0.011322   30.0000     0.0820
   10.000     0.000   0.932053   0.063915   0.019901   0.083816   0.029783  -0.000735  -0.161931  -0.011129  -0.011131   30.0000     0.0802
   10.500     0.000   0.965150   0.068777   0.019633   0.088410   0.029515  -0.000918  -0.164872  -0.010932  -0.010935   30.0000     0.0786
   11.000     0.000   0.997795   0.073722   0.020527   0.094249   0.029227  -0.001094  -0.167437  -0.010589  -0.010729   30.0000     0.0771
   11.500     0.000   1.029981   0.078765   0.019845   0.098610   0.028939  -0.001263  -0.170657  -0.010465  -0.010519   30.0000     0.0758
   12.000     0.000   1.061706   0.083919   0.019590   0.103510   0.028641  -0.001424  -0.173794  -0.010292  -0.010303   30.0000     0.0746
   12.500     0.000   1.092962   0.089192   0.020515   0.109708   0.028334  -0.001578  -0.176493  -0.010069  -0.010080   30.0000     0.0735
   13.000     0.000   1.123744   0.094592   0.019607   0.114198   0.028016  -0.001724  -0.180114  -0.009837  -0.009852   30.0000     0.0725
   13.500     0.000   1.154050   0.100131   0.021258   0.121389   0.027659  -0.001863  -0.182736  -0.009595  -0.009617   30.0000     0.0716
   14.000     0.000   1.183882   0.105848   0.015338   0.121186   0.027337  -0.001991  -0.185269  -0.009366  -0.009377   30.0000     0.0708
   14.500     0.000   1.213243   0.111759   0.014998   0.126757   0.026983  -0.002112  -0.187780  -0.009749  -0.009132   30.0000     0.0700
   15.000     0.000   1.242124   0.117843   0.011342   0.129186   0.026481  -0.002240  -0.189796  -0.008909  -0.008912   30.0000     0.0693
   15.500     0.000   1.270484   0.124091   0.011795   0.135886   0.026238  -0.002328  -0.192413  -0.008628  -0.008632   30.0000     0.0687
   16.000     0.000   1.298310   0.130431   0.012159   0.142590   0.025845  -0.002423  -0.195102  -0.008371  -0.008376   30.0000     0.0681
   16.500     0.000   1.325607   0.136909   0.012746   0.149655   0.025446  -0.002509  -0.197725  -0.008112  -0.008118   30.0000     0.0676
   17.000     0.000   1.352389   0.143580   0.013493   0.157073   0.025039  -0.002588  -0.200353  -0.007851  -0.007861   30.0000     0.0671
   17.500     0.000   1.378645   0.150437   0.015026   0.165463   0.024637  -0.002657  -0.203067  -0.007542  -0.007600   30.0000     0.0667
   18.000     0.000   1.404338   0.157404   0.011035   0.168439   0.024174  -0.002717  -0.205070  -0.007331  -0.007337   30.0000     0.0663
   18.500     0.000   1.429432   0.164431   0.008859   0.173290   0.023752  -0.002768  -0.206826  -0.007075  -0.007074   30.0000     0.0660
   19.000     0.000   1.453922   0.171515   0.009156   0.180671   0.023312  -0.002810  -0.209247  -0.006809  -0.006809   30.0000     0.0657
   19.500     0.000   1.477814   0.178671   0.009568   0.188239   0.022766  -0.002855  -0.211646  -0.006559  -0.006561   30.0000     0.0654
   20.000     0.000   1.501095   0.185934   0.006956   0.192889   0.022380  -0.002869  -0.213696  -0.006282  -0.006281   30.0000     0.0652
   20.500     0.000   1.523774   0.193293   0.007133   0.200426   0.021907  -0.002883  -0.215996  -0.006013  -0.006012   30.0000     0.0650
   21.000     0.000   1.545841   0.200755   0.007321   0.208077   0.021425  -0.002887  -0.218259  -0.005745  -0.005744   30.0000     0.0649
   21.500     0.000   1.567284   0.208319   0.007512   0.215832   0.020999  -0.002867  -0.220485  -0.005454  -0.005453   30.0000     0.0647
   22.000     0.000   1.588104   0.215968   0.007729   0.223696   0.020449  -0.002874  -0.222668  -0.005219  -0.005218   30.0000     0.0646
   22.500     0.000   1.608279   0.223698   0.007989   0.231687   0.019949  -0.002854  -0.224812  -0.004957  -0.004957   30.0000     0.0646
   23.000     0.000   1.627799   0.231492   0.008344   0.239836   0.019451  -0.002823  -0.226919  -0.004693  -0.004694   30.0000     0.0645
   23.500     0.000   1.646649   0.239331   0.009620   0.248951   0.018963  -0.002786  -0.229053  -0.004435  -0.004437   30.0000     0.0645
   24.000     0.000   1.664817   0.247203   0.005611   0.252814   0.018497  -0.002732  -0.230705  -0.004170  -0.004169   30.0000     0.0645


