xflr5 v6.43

Plane name :        left aileron -12
Polar name :        T1-30.0 m/s-VLM2-34.9kg-x0.0mm-TG
Freestream speed :  30.000 m/s


   alpha      Beta       CL          CDi        CDv        CD         CY         Cl         Cm         Cn        Cni       QInf        XCP
  -25.000     0.000  -2.000343   0.201699   0.000574   0.202272  -0.003876  -0.037461  -0.058133   0.001466   0.001466   30.0000    -0.0006
  -24.500     0.000  -1.959702   0.194527   0.000574   0.195101  -0.003677  -0.037559  -0.054743   0.001471   0.001471   30.0000    -0.0003
  -24.000     0.000  -1.918816   0.187420   0.000574   0.187993  -0.003478  -0.037655  -0.051429   0.001473   0.001473   30.0000     0.0000
  -23.500     0.000  -1.877698   0.180381   0.000574   0.180955  -0.003279  -0.037748  -0.048195   0.001472   0.001472   30.0000     0.0003
  -23.000     0.000  -1.836362   0.173417   0.000574   0.173990  -0.003082  -0.037840  -0.045043   0.001469   0.001469   30.0000     0.0006
  -22.500     0.000  -1.794818   0.166531   0.000574   0.167105  -0.002885  -0.037931  -0.041974   0.001463   0.001463   30.0000     0.0009
  -22.000     0.000  -1.753081   0.159730   0.003701   0.163431  -0.002689  -0.038019  -0.038795   0.001454   0.001454   30.0000     0.0012
  -21.500     0.000  -1.711162   0.153017   0.003475   0.156492  -0.002494  -0.038107  -0.035915   0.001442   0.001443   30.0000     0.0015
  -21.000     0.000  -1.669074   0.146399   0.004883   0.151282  -0.002300  -0.038193  -0.032990   0.001529   0.001428   30.0000     0.0017
  -20.500     0.000  -1.626830   0.139879   0.006167   0.146046  -0.002107  -0.038277  -0.030169   0.001405   0.001411   30.0000     0.0020
  -20.000     0.000  -1.584443   0.133463   0.005841   0.139303  -0.001914  -0.038360  -0.027577   0.001385   0.001391   30.0000     0.0023
  -19.500     0.000  -1.541924   0.127155   0.005629   0.132784  -0.001723  -0.038443  -0.025101   0.001377   0.001367   30.0000     0.0026
  -19.000     0.000  -1.499286   0.120959   0.006971   0.127931  -0.001533  -0.038524  -0.022522   0.001504   0.001341   30.0000     0.0029
  -18.500     0.000  -1.456542   0.114882   0.006579   0.121461  -0.001344  -0.038604  -0.020225   0.001457   0.001312   30.0000     0.0031
  -18.000     0.000  -1.413704   0.108926   0.007725   0.116651  -0.001156  -0.038684  -0.017856   0.001257   0.001280   30.0000     0.0034
  -17.500     0.000  -1.370784   0.103096   0.008644   0.111740  -0.000969  -0.038763  -0.016226   0.001223   0.001245   30.0000     0.0037
  -17.000     0.000  -1.327795   0.097397   0.007832   0.105230  -0.000784  -0.038842  -0.014057   0.001192   0.001208   30.0000     0.0039
  -16.500     0.000  -1.284750   0.091833   0.009576   0.101410  -0.000599  -0.038920  -0.012815   0.001153   0.001167   30.0000     0.0042
  -16.000     0.000  -1.241660   0.086409   0.012174   0.098583  -0.000416  -0.038998  -0.010458   0.000931   0.001124   30.0000     0.0044
  -15.500     0.000  -1.198537   0.081128   0.011721   0.092848  -0.000234  -0.039076  -0.008843   0.000954   0.001077   30.0000     0.0047
  -15.000     0.000  -1.155394   0.075994   0.013991   0.089985  -0.000054  -0.039153  -0.007530   0.000698   0.001028   30.0000     0.0049
  -14.500     0.000  -1.112243   0.071011   0.015507   0.086518   0.000126  -0.039231  -0.005960   0.000974   0.000976   30.0000     0.0051
  -14.000     0.000  -1.069096   0.066184   0.016378   0.082562   0.000303  -0.039309  -0.004497   0.001370   0.000922   30.0000     0.0053
  -13.500     0.000  -1.025965   0.061515   0.015441   0.076956   0.000480  -0.039387  -0.003189   0.001242   0.000864   30.0000     0.0055
  -13.000     0.000  -0.982862   0.057009   0.016018   0.073027   0.000655  -0.039465  -0.001781   0.001488   0.000804   30.0000     0.0057
  -12.500     0.000  -0.939799   0.052669   0.015226   0.067895   0.000829  -0.039544  -0.000757   0.001357   0.000742   30.0000     0.0059
  -12.000     0.000  -0.896789   0.048499   0.020599   0.069098   0.001001  -0.039624   0.001372   0.001668   0.000677   30.0000     0.0060
  -11.500     0.000  -0.853843   0.044501   0.019244   0.063745   0.001171  -0.039704   0.001990   0.001468   0.000609   30.0000     0.0062
  -11.000     0.000  -0.810974   0.040680   0.018217   0.058897   0.001340  -0.039785   0.002543   0.001311   0.000539   30.0000     0.0063
  -10.500     0.000  -0.768195   0.037037   0.017340   0.054377   0.001507  -0.039866   0.003002   0.001172   0.000467   30.0000     0.0064
  -10.000     0.000  -0.725519   0.033576   0.017852   0.051428   0.001673  -0.039949   0.003564   0.000650   0.000392   30.0000     0.0064
   -9.500     0.000  -0.682959   0.030300   0.019438   0.049738   0.001837  -0.040032   0.004213  -0.000368   0.000315   30.0000     0.0064
   -9.000     0.000  -0.640528   0.027210   0.018472   0.045682   0.001999  -0.040115   0.004250  -0.000353   0.000237   30.0000     0.0063
   -8.500     0.000  -0.598242   0.024310   0.017671   0.041982   0.002159  -0.040200   0.004192  -0.000371   0.000156   30.0000     0.0062
   -8.000     0.000  -0.556116   0.021602   0.016970   0.038572   0.002317  -0.040285   0.004029  -0.000407   0.000073   30.0000     0.0060
   -7.500     0.000  -0.514165   0.019087   0.016386   0.035473   0.002474  -0.040370   0.003759  -0.000455  -0.000011   30.0000     0.0057
   -7.000     0.000  -0.472407   0.016767   0.015848   0.032615   0.002628  -0.040456   0.003379  -0.000509  -0.000097   30.0000     0.0053
   -6.500     0.000  -0.430861   0.014643   0.015345   0.029988   0.002780  -0.040541   0.002891  -0.000572  -0.000185   30.0000     0.0047
   -6.000     0.000  -0.389545   0.012716   0.014932   0.027648   0.002931  -0.040626   0.002306  -0.000638  -0.000274   30.0000     0.0039
   -5.500     0.000  -0.348479   0.010988   0.014569   0.025557   0.003079  -0.040709   0.001625  -0.000702  -0.000365   30.0000     0.0029
   -5.000     0.000  -0.307680   0.009458   0.014224   0.023682   0.003225  -0.040790   0.000856  -0.000766  -0.000456   30.0000     0.0016
   -4.500     0.000  -0.267160   0.008128   0.013931   0.022059   0.003368  -0.040869   0.000006  -0.000839  -0.000548   30.0000    -0.0002
   -4.000     0.000  -0.226907   0.006998   0.013695   0.020694   0.003508  -0.040946  -0.000925  -0.000920  -0.000642   30.0000    -0.0028
   -3.500     0.000  -0.186852   0.006069   0.013454   0.019523   0.003645  -0.041024  -0.001968  -0.000998  -0.000736   30.0000    -0.0066
   -3.000     0.000  -0.146777   0.005339   0.013281   0.018620   0.003777  -0.041114  -0.003225  -0.001076  -0.000831   30.0000    -0.0130
   -2.500     0.000  -0.106159   0.004800   0.013147   0.017947   0.003904  -0.041251  -0.005005  -0.001156  -0.000929   30.0000    -0.0265
   -2.000     0.000  -0.064213   0.004434   0.013086   0.017521   0.004025  -0.041478  -0.007861  -0.001234  -0.001029   30.0000    -0.0655
   -1.500     0.000  -0.020963   0.004207   0.012896   0.017103   0.004128  -0.041683  -0.011943  -0.001324  -0.001128   30.0000    -0.2935
   -1.000     0.000   0.022025   0.004191   0.012527   0.016719   0.004223  -0.041583  -0.016234  -0.001375  -0.001222   30.0000     0.3709
   -0.500     0.000   0.062786   0.004188   0.012294   0.016482   0.004346  -0.041328  -0.019315  -0.001469  -0.001314   30.0000     0.1529
    0.000     0.000   0.101601   0.004757   0.012302   0.017059   0.004420  -0.041264  -0.021081  -0.001570  -0.001404   30.0000     0.1023
    0.500     0.000   0.139345   0.005398   0.012312   0.017710   0.004527  -0.041366  -0.022302  -0.001653  -0.001498   30.0000     0.0784
    1.000     0.000   0.176853   0.006238   0.012423   0.018662   0.004641  -0.041509  -0.023551  -0.001765  -0.001594   30.0000     0.0647
    1.500     0.000   0.214399   0.007269   0.012672   0.019941   0.004757  -0.041641  -0.025027  -0.001859  -0.001690   30.0000     0.0562
    2.000     0.000   0.251993   0.008488   0.012891   0.021379   0.004871  -0.041754  -0.026738  -0.001977  -0.001786   30.0000     0.0506
    2.500     0.000   0.289579   0.009898   0.013049   0.022948   0.004986  -0.041855  -0.028640  -0.002081  -0.001881   30.0000     0.0467
    3.000     0.000   0.327100   0.011504   0.013218   0.024722   0.005079  -0.041948  -0.030694  -0.002160  -0.001967   30.0000     0.0439
    3.500     0.000   0.364507   0.013306   0.013437   0.026742   0.005198  -0.042034  -0.032865  -0.002243  -0.002065   30.0000     0.0418
    4.000     0.000   0.401759   0.015307   0.013668   0.028974   0.005328  -0.042117  -0.035137  -0.002320  -0.002165   30.0000     0.0401
    4.500     0.000   0.438823   0.017509   0.013960   0.031469   0.005322  -0.042201  -0.037488  -0.002352  -0.002210   30.0000     0.0389
    5.000     0.000   0.475671   0.019909   0.014398   0.034307   0.005459  -0.042283  -0.039910  -0.002441  -0.002314   30.0000     0.0379
    5.500     0.000   0.512277   0.022508   0.014771   0.037279   0.005566  -0.042365  -0.042392  -0.002506  -0.002406   30.0000     0.0370
    6.000     0.000   0.548622   0.025305   0.015184   0.040489   0.005674  -0.042447  -0.044927  -0.002569  -0.002494   30.0000     0.0364
    6.500     0.000   0.584686   0.028298   0.015602   0.043899   0.005802  -0.042530  -0.047509  -0.002656  -0.002588   30.0000     0.0358
    7.000     0.000   0.620452   0.031488   0.016031   0.047519   0.005866  -0.042614  -0.050135  -0.002690  -0.002649   30.0000     0.0354
    7.500     0.000   0.655903   0.034869   0.016485   0.051354   0.005838  -0.042701  -0.052798  -0.002715  -0.002696   30.0000     0.0350
    8.000     0.000   0.691027   0.038440   0.016963   0.055403   0.005974  -0.042788  -0.055499  -0.002780  -0.002788   30.0000     0.0347
    8.500     0.000   0.725811   0.042201   0.017508   0.059709   0.006086  -0.042877  -0.058239  -0.002840  -0.002869   30.0000     0.0345
    9.000     0.000   0.760241   0.046147   0.018037   0.064184   0.006201  -0.042967  -0.061010  -0.002896  -0.002950   30.0000     0.0343
    9.500     0.000   0.794304   0.050277   0.018641   0.068919   0.006343  -0.043059  -0.063806  -0.002953  -0.003039   30.0000     0.0341
   10.000     0.000   0.827988   0.054613   0.019544   0.074156   0.004944  -0.043119  -0.066564  -0.002390  -0.002525   30.0000     0.0340
   10.500     0.000   0.861288   0.059072   0.019324   0.078396   0.006972  -0.043284  -0.069823  -0.003135  -0.003336   30.0000     0.0339
   11.000     0.000   0.894178   0.063753   0.020561   0.084314   0.005947  -0.043287  -0.072562  -0.002730  -0.002989   30.0000     0.0339
   11.500     0.000   0.926662   0.068585   0.020615   0.089200   0.006450  -0.043409  -0.075876  -0.002870  -0.003192   30.0000     0.0339
   12.000     0.000   0.958720   0.073590   0.019204   0.092794   0.006386  -0.043500  -0.079884  -0.002819  -0.003223   30.0000     0.0339
   12.500     0.000   0.990347   0.078759   0.020126   0.098885   0.006678  -0.043606  -0.083049  -0.002794  -0.003334   30.0000     0.0339
   13.000     0.000   1.021522   0.084017   0.017884   0.101902   0.008187  -0.043805  -0.086897  -0.003914  -0.004104   30.0000     0.0340
   13.500     0.000   1.052253   0.089575   0.015920   0.105495   0.007155  -0.043836  -0.089518  -0.004402  -0.003552   30.0000     0.0341
   14.000     0.000   1.082518   0.095195   0.017081   0.112277   0.008343  -0.044045  -0.092491  -0.004816  -0.003960   30.0000     0.0342
   14.500     0.000   1.112212   0.100654   0.014675   0.115329  -0.004229  -0.042940  -0.096398  -0.001482  -0.000237   30.0000     0.0343
   15.000     0.000   1.141577   0.106970   0.015303   0.122273   0.005386  -0.043873  -0.099782  -0.004298  -0.002978   30.0000     0.0344
   15.500     0.000   1.170388   0.113068   0.013543   0.126611   0.007616  -0.044144  -0.102745  -0.004142  -0.003592   30.0000     0.0346
   16.000     0.000   1.198660   0.119279   0.012521   0.131800   0.005193  -0.044039  -0.105856  -0.002965  -0.003017   30.0000     0.0348
   16.500     0.000   1.226433   0.125630   0.010741   0.136371   0.005811  -0.044200  -0.108735  -0.003557  -0.003247   30.0000     0.0349
   17.000     0.000   1.253692   0.132118   0.011199   0.143317   0.007227  -0.044304  -0.112076  -0.003686  -0.003387   30.0000     0.0351
   17.500     0.000   1.280381   0.138724   0.011978   0.150702   0.005680  -0.044360  -0.115445  -0.003507  -0.003268   30.0000     0.0354
   18.000     0.000   1.306543   0.145453   0.010311   0.155764   0.006079  -0.044450  -0.118534  -0.004068  -0.003322   30.0000     0.0356
   18.500     0.000   1.332149   0.152298   0.009106   0.161404   0.006454  -0.044528  -0.121713  -0.003850  -0.003347   30.0000     0.0358
   19.000     0.000   1.357168   0.159253   0.008142   0.167395   0.005663  -0.044723  -0.124673  -0.003477  -0.003539   30.0000     0.0361
   19.500     0.000   1.381639   0.166312   0.008394   0.174706   0.006616  -0.044783  -0.127996  -0.003471  -0.003545   30.0000     0.0363
   20.000     0.000   1.405522   0.173462   0.008839   0.182301   0.007562  -0.044965  -0.131336  -0.003644  -0.003756   30.0000     0.0366
   20.500     0.000   1.428907   0.180344   0.007466   0.187810   0.014675  -0.046093  -0.134507  -0.005823  -0.005690   30.0000     0.0369
   21.000     0.000   1.451304   0.188108   0.007632   0.195740  -0.002777  -0.045700  -0.137634  -0.004600  -0.004462   30.0000     0.0372
   21.500     0.000   1.473519   0.195546   0.007832   0.203379   0.004958  -0.044761  -0.141033  -0.003141  -0.002999   30.0000     0.0375
   22.000     0.000   1.494939   0.203595   0.008101   0.211696   0.015868  -0.045998  -0.144387  -0.005107  -0.004958   30.0000     0.0379
   22.500     0.000   1.515766   0.210665   0.008317   0.218982   0.003931  -0.044754  -0.147578  -0.002945  -0.002790   30.0000     0.0382
   23.000     0.000   1.535952   0.218334   0.008610   0.226944   0.004815  -0.044863  -0.150844  -0.003037  -0.002874   30.0000     0.0385
   23.500     0.000   1.555506   0.226088   0.009012   0.235100   0.006777  -0.044869  -0.154116  -0.002975  -0.002806   30.0000     0.0389
   24.000     0.000   1.574343   0.233863   0.008392   0.242255   0.003853  -0.045028  -0.157162  -0.002842  -0.002938   30.0000     0.0393


