xflr5 v6.43

Plane name :        left aileron 10
Polar name :        T1-30.0 m/s-VLM2-34.9kg-x0.0mm-TG
Freestream speed :  30.000 m/s


   alpha      Beta       CL          CDi        CDv        CD         CY         Cl         Cm         Cn        Cni       QInf        XCP
  -25.000     0.000  -1.753361   0.157261   0.000575   0.157836   0.001997   0.035657  -0.185474  -0.001542  -0.001542   30.0000    -0.0510
  -24.500     0.000  -1.711635   0.150680   0.000575   0.151255   0.001983   0.035599  -0.185391  -0.001534  -0.001534   30.0000    -0.0523
  -24.000     0.000  -1.669692   0.144186   0.000575   0.144761   0.001967   0.035538  -0.185355  -0.001524  -0.001524   30.0000    -0.0536
  -23.500     0.000  -1.627542   0.137784   0.003771   0.141555   0.001951   0.035477  -0.185158  -0.001509  -0.001511   30.0000    -0.0551
  -23.000     0.000  -1.585199   0.131479   0.005451   0.136930   0.001932   0.035414  -0.185064  -0.001619  -0.001495   30.0000    -0.0566
  -22.500     0.000  -1.542676   0.125276   0.004874   0.130150   0.001912   0.035350  -0.185221  -0.001575  -0.001477   30.0000    -0.0582
  -22.000     0.000  -1.499985   0.119180   0.006184   0.125364   0.001891   0.035286  -0.185264  -0.001447  -0.001456   30.0000    -0.0600
  -21.500     0.000  -1.457139   0.113194   0.005858   0.119052   0.001868   0.035220  -0.185499  -0.001425  -0.001432   30.0000    -0.0618
  -21.000     0.000  -1.414151   0.107325   0.007130   0.114455   0.001844   0.035153  -0.185582  -0.001567  -0.001405   30.0000    -0.0638
  -20.500     0.000  -1.371034   0.101575   0.006732   0.108307   0.001818   0.035086  -0.185934  -0.001521  -0.001377   30.0000    -0.0660
  -20.000     0.000  -1.327800   0.095950   0.008099   0.104049   0.001791   0.035019  -0.186118  -0.001297  -0.001345   30.0000    -0.0683
  -19.500     0.000  -1.284462   0.090454   0.007664   0.098119   0.001761   0.034951  -0.186638  -0.001284  -0.001311   30.0000    -0.0708
  -19.000     0.000  -1.241032   0.085092   0.008495   0.093587   0.001731   0.034883  -0.186938  -0.001437  -0.001275   30.0000    -0.0734
  -18.500     0.000  -1.197523   0.079867   0.008075   0.087941   0.001698   0.034815  -0.187505  -0.001386  -0.001236   30.0000    -0.0763
  -18.000     0.000  -1.153947   0.074783   0.009379   0.084162   0.001665   0.034747  -0.188718  -0.001328  -0.001196   30.0000    -0.0795
  -17.500     0.000  -1.110318   0.069845   0.008499   0.078343   0.001629   0.034678  -0.189160  -0.001279  -0.001153   30.0000    -0.0829
  -17.000     0.000  -1.066647   0.065056   0.009187   0.074243   0.001592   0.034611  -0.189571  -0.001040  -0.001107   30.0000    -0.0865
  -16.500     0.000  -1.022946   0.060421   0.010572   0.070993   0.001553   0.034543  -0.190914  -0.001005  -0.001060   30.0000    -0.0906
  -16.000     0.000  -0.979229   0.055942   0.010159   0.066101   0.001513   0.034476  -0.191682  -0.000963  -0.001011   30.0000    -0.0950
  -15.500     0.000  -0.935506   0.051624   0.017559   0.069183   0.001470   0.034410  -0.191498  -0.003564  -0.000960   30.0000    -0.0998
  -15.000     0.000  -0.891792   0.047470   0.019194   0.066665   0.001427   0.034344  -0.192404  -0.003131  -0.000907   30.0000    -0.1052
  -14.500     0.000  -0.848096   0.043484   0.016074   0.059557   0.001381   0.034279  -0.193958  -0.000817  -0.000852   30.0000    -0.1111
  -14.000     0.000  -0.804433   0.039668   0.016255   0.055923   0.001334   0.034215  -0.195232  -0.000800  -0.000796   30.0000    -0.1177
  -13.500     0.000  -0.760814   0.036026   0.026718   0.062744   0.001285   0.034151  -0.193862  -0.004086  -0.000738   30.0000    -0.1250
  -13.000     0.000  -0.717251   0.032560   0.020502   0.053062   0.001234   0.034089  -0.196230  -0.001976  -0.000678   30.0000    -0.1333
  -12.500     0.000  -0.673756   0.029275   0.021682   0.050957   0.001182   0.034028  -0.197047  -0.000950  -0.000617   30.0000    -0.1426
  -12.000     0.000  -0.630342   0.026171   0.021558   0.047729   0.001128   0.033968  -0.198219  -0.000508  -0.000555   30.0000    -0.1533
  -11.500     0.000  -0.587021   0.023253   0.020413   0.043666   0.001072   0.033909  -0.199664  -0.000505  -0.000491   30.0000    -0.1655
  -11.000     0.000  -0.543807   0.020522   0.019459   0.039981   0.001015   0.033852  -0.201132  -0.000483  -0.000427   30.0000    -0.1797
  -10.500     0.000  -0.500712   0.017980   0.018625   0.036605   0.000956   0.033796  -0.202643  -0.000449  -0.000361   30.0000    -0.1964
  -10.000     0.000  -0.457750   0.015630   0.017876   0.033506   0.000895   0.033741  -0.204200  -0.000407  -0.000294   30.0000    -0.2161
   -9.500     0.000  -0.414936   0.013474   0.017219   0.030692   0.000832   0.033687  -0.205803  -0.000361  -0.000227   30.0000    -0.2400
   -9.000     0.000  -0.372284   0.011512   0.016658   0.028170   0.000768   0.033634  -0.207451  -0.000311  -0.000159   30.0000    -0.2692
   -8.500     0.000  -0.329810   0.009747   0.016147   0.025893   0.000702   0.033582  -0.209148  -0.000258  -0.000090   30.0000    -0.3060
   -8.000     0.000  -0.287533   0.008179   0.015655   0.023834   0.000634   0.033531  -0.210893  -0.000198  -0.000020   30.0000    -0.3534
   -7.500     0.000  -0.245470   0.006810   0.015213   0.022023   0.000564   0.033481  -0.212679  -0.000133   0.000050   30.0000    -0.4169
   -7.000     0.000  -0.203642   0.005639   0.014795   0.020434   0.000493   0.033430  -0.214503  -0.000074   0.000120   30.0000    -0.5061
   -6.500     0.000  -0.162070   0.004666   0.014419   0.019085   0.000420   0.033379  -0.216355  -0.000003   0.000191   30.0000    -0.6405
   -6.000     0.000  -0.120778   0.003891   0.014136   0.018027   0.000346   0.033326  -0.218220   0.000063   0.000261   30.0000    -0.8657
   -5.500     0.000  -0.079789   0.003312   0.013889   0.017201   0.000271   0.033271  -0.220094   0.000128   0.000332   30.0000    -1.3199
   -5.000     0.000  -0.039120   0.002927   0.013645   0.016572   0.000195   0.033212  -0.221968   0.000203   0.000403   30.0000    -2.7113
   -4.500     0.000   0.001226   0.002737   0.013452   0.016189   0.000119   0.033149  -0.223833   0.000280   0.000473   30.0000    87.0974
   -4.000     0.000   0.041297   0.002746   0.013307   0.016054   0.000041   0.033085  -0.225711   0.000343   0.000544   30.0000     2.6050
   -3.500     0.000   0.081273   0.002967   0.013229   0.016195  -0.000041   0.033035  -0.227704   0.000416   0.000615   30.0000     1.3337
   -3.000     0.000   0.121611   0.003408   0.013123   0.016531  -0.000129   0.033040  -0.230113   0.000501   0.000686   30.0000     0.8997
   -2.500     0.000   0.162989   0.004070   0.012999   0.017069  -0.000219   0.033129  -0.233408   0.000605   0.000758   30.0000     0.6801
   -2.000     0.000   0.205726   0.004863   0.012819   0.017682  -0.000295   0.033169  -0.237821   0.000696   0.000828   30.0000     0.5483
   -1.500     0.000   0.248593   0.005832   0.012569   0.018400  -0.000366   0.032979  -0.242442   0.000765   0.000895   30.0000     0.4621
   -1.000     0.000   0.289635   0.007043   0.012321   0.019364  -0.000427   0.032739  -0.245890   0.000808   0.000957   30.0000     0.4018
   -0.500     0.000   0.328278   0.008419   0.012259   0.020678  -0.000511   0.032636  -0.247908   0.000873   0.001019   30.0000     0.3571
    0.000     0.000   0.365653   0.009981   0.012440   0.022420  -0.000613   0.032608  -0.249326   0.000879   0.001083   30.0000     0.3222
    0.500     0.000   0.402706   0.011737   0.012588   0.024325  -0.000723   0.032589  -0.250722   0.000882   0.001147   30.0000     0.2939
    1.000     0.000   0.439738   0.013691   0.012856   0.026547  -0.000835   0.032561  -0.252241   0.000922   0.001210   30.0000     0.2706
    1.500     0.000   0.476772   0.015842   0.013143   0.028985  -0.000948   0.032523  -0.253881   0.000934   0.001271   30.0000     0.2510
    2.000     0.000   0.513768   0.018190   0.013517   0.031707  -0.001062   0.032477  -0.255610   0.000936   0.001331   30.0000     0.2344
    2.500     0.000   0.550675   0.020735   0.014231   0.034966  -0.001178   0.032426  -0.257400   0.000831   0.001389   30.0000     0.2201
    3.000     0.000   0.587448   0.023476   0.014823   0.038300  -0.001280   0.032372  -0.259225   0.000788   0.001440   30.0000     0.2077
    3.500     0.000   0.624048   0.026414   0.015344   0.041757  -0.001406   0.032314  -0.261066   0.000794   0.001498   30.0000     0.1968
    4.000     0.000   0.660444   0.029546   0.016039   0.045584  -0.001542   0.032255  -0.262921   0.000705   0.001558   30.0000     0.1872
    4.500     0.000   0.696608   0.032872   0.016571   0.049444  -0.001581   0.032196  -0.264761   0.000672   0.001575   30.0000     0.1787
    5.000     0.000   0.732516   0.036390   0.017150   0.053540  -0.001729   0.032136  -0.266590   0.000693   0.001637   30.0000     0.1711
    5.500     0.000   0.768148   0.040099   0.017796   0.057895  -0.001858   0.032075  -0.268401   0.000697   0.001688   30.0000     0.1643
    6.000     0.000   0.803485   0.043996   0.018440   0.062436  -0.001991   0.032015  -0.270184   0.000683   0.001735   30.0000     0.1581
    6.500     0.000   0.838510   0.048078   0.019226   0.067305  -0.002142   0.031954  -0.271948   0.000656   0.001786   30.0000     0.1525
    7.000     0.000   0.873208   0.052346   0.020007   0.072352  -0.002249   0.031893  -0.273682   0.000596   0.001813   30.0000     0.1474
    7.500     0.000   0.907563   0.056792   0.020858   0.077650  -0.002294   0.031833  -0.275392   0.000515   0.001829   30.0000     0.1427
    8.000     0.000   0.941563   0.061416   0.021778   0.083195  -0.002460   0.031773  -0.277072   0.000452   0.001877   30.0000     0.1385
    8.500     0.000   0.975194   0.066215   0.022798   0.089013  -0.002610   0.031713  -0.278731   0.000352   0.001917   30.0000     0.1346
    9.000     0.000   1.008444   0.071186   0.023972   0.095158  -0.002764   0.031654  -0.280365   0.000218   0.001955   30.0000     0.1310
    9.500     0.000   1.041300   0.076325   0.022806   0.099131  -0.002939   0.031596  -0.281662   0.001026   0.001997   30.0000     0.1276
   10.000     0.000   1.073750   0.081639   0.022651   0.104289  -0.002041   0.031510  -0.282853   0.001262   0.001619   30.0000     0.1245
   10.500     0.000   1.105787   0.087092   0.020457   0.107549  -0.003469   0.031500  -0.284481   0.002464   0.002141   30.0000     0.1217
   11.000     0.000   1.137391   0.092721   0.020696   0.113417  -0.002990   0.031386  -0.286216   0.002292   0.001934   30.0000     0.1190
   11.500     0.000   1.168559   0.098497   0.020004   0.118501  -0.003376   0.031342  -0.288362   0.002474   0.002038   30.0000     0.1166
   12.000     0.000   1.199275   0.104424   0.019300   0.123724  -0.003449   0.031280  -0.289772   0.002920   0.002045   30.0000     0.1143
   12.500     0.000   1.229530   0.110498   0.018379   0.128877  -0.003719   0.031225  -0.290976   0.002715   0.002095   30.0000     0.1121
   13.000     0.000   1.259311   0.116684   0.012418   0.129102  -0.004886   0.031231  -0.292435   0.003107   0.002590   30.0000     0.1101
   13.500     0.000   1.288613   0.123068   0.013219   0.136286  -0.004186   0.031122  -0.293613   0.002737   0.002184   30.0000     0.1083
   14.000     0.000   1.317422   0.129549   0.010996   0.140545  -0.004923   0.031120  -0.295410   0.002656   0.002385   30.0000     0.1065
   14.500     0.000   1.345691   0.136081   0.011409   0.147491   0.001421   0.030413  -0.296648   0.000747   0.000450   30.0000     0.1049
   15.000     0.000   1.373505   0.142924   0.011892   0.154816  -0.003649   0.030801  -0.297890   0.002185   0.001855   30.0000     0.1034
   15.500     0.000   1.400774   0.149795   0.012343   0.162138  -0.004925   0.030831  -0.299157   0.002542   0.002161   30.0000     0.1020
   16.000     0.000   1.427497   0.156772   0.011694   0.168466  -0.003825   0.030660  -0.300007   0.001656   0.001853   30.0000     0.1006
   16.500     0.000   1.453683   0.163865   0.012393   0.176258  -0.004268   0.030627  -0.301124   0.001754   0.001957   30.0000     0.0994
   17.000     0.000   1.479318   0.171069   0.008210   0.179279  -0.005091   0.030569  -0.301591   0.001988   0.002012   30.0000     0.0982
   17.500     0.000   1.504379   0.178371   0.008480   0.186851  -0.004489   0.030479  -0.302539   0.001915   0.001942   30.0000     0.0971
   18.000     0.000   1.528873   0.185773   0.008809   0.194582  -0.004823   0.030409  -0.303449   0.001919   0.001955   30.0000     0.0961
   18.500     0.000   1.552784   0.193269   0.007658   0.200927  -0.005144   0.030333  -0.304167   0.002139   0.001954   30.0000     0.0952
   19.000     0.000   1.576097   0.200851   0.007952   0.208803  -0.004926   0.030306  -0.304964   0.002236   0.002028   30.0000     0.0943
   19.500     0.000   1.598817   0.208519   0.006715   0.215234  -0.005510   0.030222  -0.305555   0.002009   0.002016   30.0000     0.0934
   20.000     0.000   1.620926   0.216262   0.006902   0.223164  -0.006083   0.030191  -0.306233   0.002087   0.002095   30.0000     0.0927
   20.500     0.000   1.642442   0.224005   0.007101   0.231106  -0.009376   0.030588  -0.306865   0.002932   0.002940   30.0000     0.0920
   21.000     0.000   1.663222   0.231964   0.007307   0.239272  -0.001861   0.030245  -0.307388   0.002357   0.002367   30.0000     0.0913
   21.500     0.000   1.683490   0.239929   0.007554   0.247483  -0.005400   0.029750  -0.307927   0.001699   0.001712   30.0000     0.0907
   22.000     0.000   1.703076   0.248046   0.008197   0.256243  -0.010223   0.030187  -0.308427   0.002488   0.002542   30.0000     0.0901
   22.500     0.000   1.721994   0.256001   0.008833   0.264834  -0.005295   0.029515  -0.308830   0.001512   0.001593   30.0000     0.0896
   23.000     0.000   1.740263   0.264112   0.007303   0.271415  -0.005834   0.029447  -0.309025   0.001839   0.001614   30.0000     0.0891
   23.500     0.000   1.757869   0.272272   0.005325   0.277598  -0.006810   0.029338  -0.309116   0.001568   0.001569   30.0000     0.0886
   24.000     0.000   1.774781   0.280455   0.005460   0.285916  -0.005777   0.029278  -0.309296   0.001605   0.001607   30.0000     0.0882


