xflr5 v6.43

Plane name :        left aileron -5
Polar name :        T1-30.0 m/s-VLM2-34.9kg-x0.0mm-TG
Freestream speed :  30.000 m/s


   alpha      Beta       CL          CDi        CDv        CD         CY         Cl         Cm         Cn        Cni       QInf        XCP
  -25.000     0.000  -1.940875   0.182595   0.000573   0.183168  -0.003448  -0.016836  -0.091843   0.000614   0.000614   30.0000    -0.0127
  -24.500     0.000  -1.899541   0.175645   0.000573   0.176218  -0.003307  -0.016862  -0.089477   0.000615   0.000615   30.0000    -0.0128
  -24.000     0.000  -1.857967   0.168768   0.000573   0.169341  -0.003166  -0.016888  -0.087188   0.000616   0.000616   30.0000    -0.0129
  -23.500     0.000  -1.816166   0.161968   0.000573   0.162541  -0.003027  -0.016913  -0.084978   0.000615   0.000615   30.0000    -0.0130
  -23.000     0.000  -1.774150   0.155250   0.000573   0.155823  -0.002888  -0.016937  -0.082847   0.000613   0.000613   30.0000    -0.0132
  -22.500     0.000  -1.731933   0.148619   0.003899   0.152518  -0.002751  -0.016960  -0.080587   0.000609   0.000610   30.0000    -0.0134
  -22.000     0.000  -1.689527   0.142080   0.003545   0.145624  -0.002615  -0.016982  -0.078646   0.000605   0.000605   30.0000    -0.0136
  -21.500     0.000  -1.646944   0.135637   0.005091   0.140728  -0.002481  -0.017003  -0.076631   0.000710   0.000600   30.0000    -0.0138
  -21.000     0.000  -1.604199   0.129295   0.006291   0.135587  -0.002348  -0.017024  -0.074736   0.000589   0.000593   30.0000    -0.0141
  -20.500     0.000  -1.561303   0.123059   0.005941   0.129000  -0.002216  -0.017044  -0.073059   0.000582   0.000585   30.0000    -0.0144
  -20.000     0.000  -1.518269   0.116933   0.005650   0.122584  -0.002085  -0.017064  -0.071467   0.000574   0.000576   30.0000    -0.0148
  -19.500     0.000  -1.475111   0.110922   0.005524   0.116447  -0.001956  -0.017083  -0.070009   0.000564   0.000566   30.0000    -0.0152
  -19.000     0.000  -1.431841   0.105031   0.008546   0.113576  -0.001829  -0.017101  -0.068189   0.000515   0.000554   30.0000    -0.0156
  -18.500     0.000  -1.388471   0.099262   0.007826   0.107088  -0.001703  -0.017119  -0.066921   0.000528   0.000541   30.0000    -0.0161
  -18.000     0.000  -1.345014   0.093622   0.007424   0.101046  -0.001579  -0.017137  -0.065713   0.000517   0.000527   30.0000    -0.0166
  -17.500     0.000  -1.301483   0.088113   0.008354   0.096467  -0.001456  -0.017154  -0.065036   0.000502   0.000512   30.0000    -0.0172
  -17.000     0.000  -1.257891   0.082741   0.007606   0.090346  -0.001335  -0.017171  -0.063839   0.000488   0.000496   30.0000    -0.0178
  -16.500     0.000  -1.214250   0.077508   0.010556   0.088064  -0.001216  -0.017188  -0.063336   0.000666   0.000478   30.0000    -0.0186
  -16.000     0.000  -1.170572   0.072420   0.010069   0.082489  -0.001099  -0.017205  -0.062444   0.000627   0.000459   30.0000    -0.0194
  -15.500     0.000  -1.126871   0.067480   0.011748   0.079228  -0.000984  -0.017221  -0.061690   0.000385   0.000439   30.0000    -0.0203
  -15.000     0.000  -1.083157   0.062692   0.013546   0.076237  -0.000871  -0.017238  -0.061082   0.000116   0.000418   30.0000    -0.0212
  -14.500     0.000  -1.039444   0.058059   0.016119   0.074178  -0.000759  -0.017254  -0.060127   0.000921   0.000396   30.0000    -0.0223
  -14.000     0.000  -0.995744   0.053585   0.016160   0.069745  -0.000650  -0.017270  -0.059938   0.000806   0.000372   30.0000    -0.0235
  -13.500     0.000  -0.952070   0.049274   0.015989   0.065263  -0.000543  -0.017287  -0.059220   0.000297   0.000348   30.0000    -0.0249
  -13.000     0.000  -0.908433   0.045129   0.016463   0.061592  -0.000437  -0.017303  -0.058745   0.000617   0.000322   30.0000    -0.0264
  -12.500     0.000  -0.864846   0.041153   0.016820   0.057972  -0.000334  -0.017320  -0.058412   0.000259   0.000295   30.0000    -0.0281
  -12.000     0.000  -0.821321   0.037349   0.019448   0.056797  -0.000233  -0.017336  -0.057715   0.001468   0.000267   30.0000    -0.0300
  -11.500     0.000  -0.777871   0.033721   0.019489   0.053210  -0.000134  -0.017353  -0.057684   0.000927   0.000239   30.0000    -0.0322
  -11.000     0.000  -0.734510   0.030271   0.020471   0.050743  -0.000038  -0.017371  -0.057562   0.000041   0.000209   30.0000    -0.0347
  -10.500     0.000  -0.691248   0.027003   0.019380   0.046383   0.000056  -0.017388  -0.057976   0.000038   0.000178   30.0000    -0.0375
  -10.000     0.000  -0.648101   0.023918   0.018465   0.042383   0.000148  -0.017406  -0.058470   0.000020   0.000146   30.0000    -0.0407
   -9.500     0.000  -0.605082   0.021019   0.017646   0.038665   0.000238  -0.017424  -0.059053  -0.000002   0.000114   30.0000    -0.0444
   -9.000     0.000  -0.562205   0.018309   0.016940   0.035249   0.000325  -0.017443  -0.059727  -0.000031   0.000080   30.0000    -0.0488
   -8.500     0.000  -0.519485   0.015789   0.016310   0.032098   0.000409  -0.017461  -0.060497  -0.000061   0.000046   30.0000    -0.0538
   -8.000     0.000  -0.476938   0.013461   0.015765   0.029226   0.000492  -0.017480  -0.061362  -0.000093   0.000011   30.0000    -0.0599
   -7.500     0.000  -0.434581   0.011327   0.015278   0.026605   0.000571  -0.017499  -0.062321  -0.000127  -0.000025   30.0000    -0.0671
   -7.000     0.000  -0.392432   0.009388   0.014822   0.024211   0.000648  -0.017518  -0.063373  -0.000163  -0.000061   30.0000    -0.0760
   -6.500     0.000  -0.350511   0.007646   0.014411   0.022057   0.000723  -0.017536  -0.064512  -0.000200  -0.000098   30.0000    -0.0870
   -6.000     0.000  -0.308837   0.006101   0.014053   0.020154   0.000795  -0.017555  -0.065731  -0.000228  -0.000136   30.0000    -0.1009
   -5.500     0.000  -0.267430   0.004754   0.013751   0.018505   0.000864  -0.017572  -0.067020  -0.000259  -0.000174   30.0000    -0.1192
   -5.000     0.000  -0.226307   0.003605   0.013477   0.017082   0.000930  -0.017588  -0.068374  -0.000297  -0.000212   30.0000    -0.1441
   -4.500     0.000  -0.185479   0.002655   0.013255   0.015909   0.000993  -0.017604  -0.069785  -0.000333  -0.000251   30.0000    -0.1797
   -4.000     0.000  -0.144928   0.001903   0.013053   0.014956   0.001053  -0.017618  -0.071257  -0.000379  -0.000291   30.0000    -0.2352
   -3.500     0.000  -0.104573   0.001349   0.012881   0.014230   0.001110  -0.017633  -0.072826  -0.000416  -0.000330   30.0000    -0.3333
   -3.000     0.000  -0.064168   0.000991   0.012778   0.013769   0.001164  -0.017655  -0.074616  -0.000453  -0.000371   30.0000    -0.5567
   -2.500     0.000  -0.023127   0.000822   0.012742   0.013564   0.001214  -0.017705  -0.076990  -0.000489  -0.000412   30.0000    -1.5936
   -2.000     0.000   0.019420   0.000831   0.012683   0.013514   0.001258  -0.017795  -0.080584  -0.000519  -0.000454   30.0000     1.9849
   -1.500     0.000   0.063261   0.000982   0.012467   0.013448   0.001290  -0.017830  -0.085420  -0.000548  -0.000495   30.0000     0.6450
   -1.000     0.000   0.106115   0.001311   0.012160   0.013471   0.001328  -0.017727  -0.089839  -0.000585  -0.000535   30.0000     0.4038
   -0.500     0.000   0.146323   0.001929   0.011922   0.013851   0.001348  -0.017635  -0.092558  -0.000600  -0.000572   30.0000     0.3012
    0.000     0.000   0.184625   0.002730   0.011909   0.014639   0.001378  -0.017638  -0.094169  -0.000633  -0.000611   30.0000     0.2425
    0.500     0.000   0.222356   0.003720   0.011917   0.015638   0.001413  -0.017676  -0.095610  -0.000668  -0.000651   30.0000     0.2042
    1.000     0.000   0.260046   0.004897   0.012040   0.016938   0.001448  -0.017714  -0.097218  -0.000702  -0.000692   30.0000     0.1772
    1.500     0.000   0.297784   0.006264   0.012165   0.018429   0.001480  -0.017745  -0.099036  -0.000733  -0.000732   30.0000     0.1573
    2.000     0.000   0.335531   0.007825   0.012269   0.020094   0.001510  -0.017770  -0.101033  -0.000783  -0.000772   30.0000     0.1422
    2.500     0.000   0.373234   0.009581   0.012475   0.022056   0.001538  -0.017791  -0.103166  -0.000816  -0.000812   30.0000     0.1302
    3.000     0.000   0.410841   0.011534   0.012682   0.024216   0.001554  -0.017809  -0.105405  -0.000850  -0.000848   30.0000     0.1206
    3.500     0.000   0.448308   0.013686   0.012977   0.026663   0.001579  -0.017826  -0.107724  -0.000885  -0.000889   30.0000     0.1127
    4.000     0.000   0.485598   0.016035   0.013295   0.029330   0.001608  -0.017842  -0.110107  -0.000912  -0.000931   30.0000     0.1061
    4.500     0.000   0.522681   0.018581   0.013638   0.032219   0.001577  -0.017858  -0.112539  -0.000930  -0.000949   30.0000     0.1005
    5.000     0.000   0.559531   0.021324   0.014036   0.035359   0.001605  -0.017873  -0.115014  -0.000950  -0.000993   30.0000     0.0958
    5.500     0.000   0.596123   0.024261   0.014444   0.038705   0.001618  -0.017889  -0.117520  -0.000983  -0.001031   30.0000     0.0916
    6.000     0.000   0.632438   0.027392   0.014906   0.042298   0.001631  -0.017905  -0.120051  -0.001004  -0.001068   30.0000     0.0880
    6.500     0.000   0.668458   0.030715   0.015338   0.046053   0.001650  -0.017921  -0.122602  -0.001040  -0.001107   30.0000     0.0849
    7.000     0.000   0.704166   0.034228   0.015829   0.050057   0.001641  -0.017938  -0.125171  -0.001048  -0.001132   30.0000     0.0821
    7.500     0.000   0.739546   0.037928   0.016332   0.054260   0.001592  -0.017955  -0.127751  -0.001058  -0.001151   30.0000     0.0796
    8.000     0.000   0.774586   0.041814   0.016898   0.058712   0.001611  -0.017973  -0.130342  -0.001083  -0.001190   30.0000     0.0774
    8.500     0.000   0.809270   0.045882   0.017456   0.063338   0.001617  -0.017991  -0.132945  -0.001101  -0.001224   30.0000     0.0754
    9.000     0.000   0.843587   0.050130   0.018074   0.068204   0.001623  -0.018010  -0.135556  -0.001128  -0.001257   30.0000     0.0737
    9.500     0.000   0.877524   0.054556   0.018770   0.073326   0.001640  -0.018030  -0.138166  -0.001146  -0.001294   30.0000     0.0721
   10.000     0.000   0.911069   0.059160   0.019780   0.078940   0.001016  -0.018036  -0.140697  -0.000890  -0.001081   30.0000     0.0706
   10.500     0.000   0.944210   0.063927   0.019563   0.083490   0.001806  -0.018087  -0.143731  -0.001181  -0.001416   30.0000     0.0693
   11.000     0.000   0.976936   0.068869   0.021147   0.090016   0.001344  -0.018070  -0.146114  -0.000990  -0.001275   30.0000     0.0681
   11.500     0.000   1.009235   0.073973   0.020224   0.094198   0.001501  -0.018101  -0.149567  -0.001030  -0.001358   30.0000     0.0671
   12.000     0.000   1.041096   0.079240   0.019707   0.098946   0.001428  -0.018121  -0.152935  -0.000975  -0.001371   30.0000     0.0661
   12.500     0.000   1.072509   0.084663   0.019383   0.104046   0.001496  -0.018146  -0.155562  -0.001421  -0.001417   30.0000     0.0652
   13.000     0.000   1.103462   0.090230   0.015657   0.105886   0.002067  -0.018210  -0.158848  -0.002704  -0.001732   30.0000     0.0644
   13.500     0.000   1.133945   0.095970   0.016796   0.112766   0.001584  -0.018204  -0.161491  -0.002560  -0.001505   30.0000     0.0637
   14.000     0.000   1.163947   0.101842   0.015137   0.116979   0.002004  -0.018271  -0.164752  -0.002361  -0.001668   30.0000     0.0630
   14.500     0.000   1.193444   0.107809   0.011882   0.119691  -0.003034  -0.017809  -0.166989  -0.000339  -0.000190   30.0000     0.0624
   15.000     0.000   1.222462   0.114025   0.012359   0.126383   0.000724  -0.018168  -0.169783  -0.001425  -0.001280   30.0000     0.0619
   15.500     0.000   1.250958   0.120319   0.011661   0.131980   0.001551  -0.018260  -0.172413  -0.001334  -0.001524   30.0000     0.0614
   16.000     0.000   1.278928   0.126740   0.012104   0.138844   0.000540  -0.018200  -0.175277  -0.001047  -0.001297   30.0000     0.0610
   16.500     0.000   1.306367   0.133288   0.011311   0.144599   0.000727  -0.018247  -0.177711  -0.001782  -0.001389   30.0000     0.0606
   17.000     0.000   1.333265   0.139960   0.012031   0.151990   0.001224  -0.018273  -0.180490  -0.001866  -0.001444   30.0000     0.0603
   17.500     0.000   1.359605   0.146748   0.009785   0.156532   0.000562  -0.018278  -0.182726  -0.001796  -0.001398   30.0000     0.0600
   18.000     0.000   1.385386   0.153649   0.008066   0.161714   0.000660  -0.018297  -0.185129  -0.001395  -0.001420   30.0000     0.0597
   18.500     0.000   1.410595   0.160658   0.008309   0.168967   0.000746  -0.018312  -0.187761  -0.001402  -0.001430   30.0000     0.0595
   19.000     0.000   1.435218   0.167772   0.008583   0.176355   0.000380  -0.018371  -0.190372  -0.001472  -0.001505   30.0000     0.0593
   19.500     0.000   1.459256   0.174984   0.008930   0.183915   0.000688  -0.018379  -0.192972  -0.001460  -0.001508   30.0000     0.0592
   20.000     0.000   1.482692   0.182289   0.007731   0.190020   0.000991  -0.018434  -0.195381  -0.001766  -0.001589   30.0000     0.0591
   20.500     0.000   1.505533   0.189628   0.008001   0.197629   0.003657  -0.018856  -0.197918  -0.002525  -0.002333   30.0000     0.0590
   21.000     0.000   1.527701   0.197173   0.008673   0.205846  -0.003091  -0.018673  -0.200439  -0.002125  -0.001858   30.0000     0.0589
   21.500     0.000   1.549304   0.204734   0.007052   0.211786  -0.000193  -0.018308  -0.202706  -0.001289  -0.001297   30.0000     0.0589
   22.000     0.000   1.570246   0.212446   0.007259   0.219705   0.003901  -0.018772  -0.205138  -0.002037  -0.002046   30.0000     0.0589
   22.500     0.000   1.590551   0.220077   0.007484   0.227560  -0.000706  -0.018274  -0.207512  -0.001205  -0.001217   30.0000     0.0589
   23.000     0.000   1.610203   0.227847   0.007771   0.235619  -0.000433  -0.018302  -0.209866  -0.001232  -0.001249   30.0000     0.0589
   23.500     0.000   1.629197   0.235680   0.008542   0.244223   0.000246  -0.018291  -0.212219  -0.001154  -0.001222   30.0000     0.0590
   24.000     0.000   1.647515   0.243563   0.007108   0.250670  -0.000922  -0.018333  -0.214342  -0.001476  -0.001271   30.0000     0.0591


